
---------- Begin Simulation Statistics ----------
final_tick                                89133717253                       # Number of ticks from beginning of simulation (restored from checkpoints and never reset)
host_inst_rate                                 311817                       # Simulator instruction rate (inst/s)
host_mem_usage                                 678912                       # Number of bytes of host memory used
host_op_rate                                   315256                       # Simulator op (including micro ops) rate (op/s)
host_seconds                                   320.70                       # Real time elapsed on the host
host_tick_rate                              277934375                       # Simulator tick rate (ticks/s)
sim_freq                                 1000000000000                       # Frequency of simulated ticks
sim_insts                                   100000000                       # Number of instructions simulated
sim_ops                                     101102730                       # Number of ops (including micro ops) simulated
sim_seconds                                  0.089134                       # Number of seconds simulated
sim_ticks                                 89133717253                       # Number of ticks simulated
system.cpu.committedInsts                   100000000                       # Number of instructions committed
system.cpu.committedOps                     101102730                       # Number of ops (including micro ops) committed
system.cpu.cpi                               1.336338                       # CPI: cycles per instruction
system.cpu.discardedOps                        781435                       # Number of ops (including micro ops) which were discarded before commit
system.cpu.idleCycles                        14320723                       # Total number of cycles that the object has spent stopped
system.cpu.ipc                               0.748314                       # IPC: instructions per cycle
system.cpu.numCycles                        133633759                       # number of cpu cycles simulated
system.cpu.numFetchSuspends                         0                       # Number of times Execute suspended instruction fetching
system.cpu.numWorkItemsCompleted                    0                       # number of work items this cpu completed
system.cpu.numWorkItemsStarted                      0                       # number of work items this cpu started
system.cpu.op_class_0::No_OpClass                   0      0.00%      0.00% # Class of committed instruction
system.cpu.op_class_0::IntAlu                55115624     54.51%     54.51% # Class of committed instruction
system.cpu.op_class_0::IntMult                 167845      0.17%     54.68% # Class of committed instruction
system.cpu.op_class_0::IntDiv                       0      0.00%     54.68% # Class of committed instruction
system.cpu.op_class_0::FloatAdd                     0      0.00%     54.68% # Class of committed instruction
system.cpu.op_class_0::FloatCmp                     0      0.00%     54.68% # Class of committed instruction
system.cpu.op_class_0::FloatCvt                     0      0.00%     54.68% # Class of committed instruction
system.cpu.op_class_0::FloatMult                    0      0.00%     54.68% # Class of committed instruction
system.cpu.op_class_0::FloatMultAcc                 0      0.00%     54.68% # Class of committed instruction
system.cpu.op_class_0::FloatDiv                     0      0.00%     54.68% # Class of committed instruction
system.cpu.op_class_0::FloatMisc                    0      0.00%     54.68% # Class of committed instruction
system.cpu.op_class_0::FloatSqrt                    0      0.00%     54.68% # Class of committed instruction
system.cpu.op_class_0::SimdAdd                    380      0.00%     54.68% # Class of committed instruction
system.cpu.op_class_0::SimdAddAcc                   0      0.00%     54.68% # Class of committed instruction
system.cpu.op_class_0::SimdAlu                    470      0.00%     54.68% # Class of committed instruction
system.cpu.op_class_0::SimdCmp                    382      0.00%     54.68% # Class of committed instruction
system.cpu.op_class_0::SimdCvt                      0      0.00%     54.68% # Class of committed instruction
system.cpu.op_class_0::SimdMisc                    53      0.00%     54.68% # Class of committed instruction
system.cpu.op_class_0::SimdMult                     0      0.00%     54.68% # Class of committed instruction
system.cpu.op_class_0::SimdMultAcc                  0      0.00%     54.68% # Class of committed instruction
system.cpu.op_class_0::SimdShift                    0      0.00%     54.68% # Class of committed instruction
system.cpu.op_class_0::SimdShiftAcc                 0      0.00%     54.68% # Class of committed instruction
system.cpu.op_class_0::SimdDiv                      0      0.00%     54.68% # Class of committed instruction
system.cpu.op_class_0::SimdSqrt                     0      0.00%     54.68% # Class of committed instruction
system.cpu.op_class_0::SimdFloatAdd            267609      0.26%     54.95% # Class of committed instruction
system.cpu.op_class_0::SimdFloatAlu                 0      0.00%     54.95% # Class of committed instruction
system.cpu.op_class_0::SimdFloatCmp            259630      0.26%     55.20% # Class of committed instruction
system.cpu.op_class_0::SimdFloatCvt            161456      0.16%     55.36% # Class of committed instruction
system.cpu.op_class_0::SimdFloatDiv             54308      0.05%     55.42% # Class of committed instruction
system.cpu.op_class_0::SimdFloatMisc           483618      0.48%     55.90% # Class of committed instruction
system.cpu.op_class_0::SimdFloatMult            33524      0.03%     55.93% # Class of committed instruction
system.cpu.op_class_0::SimdFloatMultAcc         11115      0.01%     55.94% # Class of committed instruction
system.cpu.op_class_0::SimdFloatSqrt                0      0.00%     55.94% # Class of committed instruction
system.cpu.op_class_0::SimdReduceAdd                0      0.00%     55.94% # Class of committed instruction
system.cpu.op_class_0::SimdReduceAlu                0      0.00%     55.94% # Class of committed instruction
system.cpu.op_class_0::SimdReduceCmp                0      0.00%     55.94% # Class of committed instruction
system.cpu.op_class_0::SimdFloatReduceAdd            0      0.00%     55.94% # Class of committed instruction
system.cpu.op_class_0::SimdFloatReduceCmp            0      0.00%     55.94% # Class of committed instruction
system.cpu.op_class_0::SimdAes                      0      0.00%     55.94% # Class of committed instruction
system.cpu.op_class_0::SimdAesMix                   0      0.00%     55.94% # Class of committed instruction
system.cpu.op_class_0::SimdSha1Hash                 0      0.00%     55.94% # Class of committed instruction
system.cpu.op_class_0::SimdSha1Hash2                0      0.00%     55.94% # Class of committed instruction
system.cpu.op_class_0::SimdSha256Hash               0      0.00%     55.94% # Class of committed instruction
system.cpu.op_class_0::SimdSha256Hash2              0      0.00%     55.94% # Class of committed instruction
system.cpu.op_class_0::SimdShaSigma2                0      0.00%     55.94% # Class of committed instruction
system.cpu.op_class_0::SimdShaSigma3                0      0.00%     55.94% # Class of committed instruction
system.cpu.op_class_0::SimdPredAlu                  0      0.00%     55.94% # Class of committed instruction
system.cpu.op_class_0::MemRead               38167611     37.75%     93.69% # Class of committed instruction
system.cpu.op_class_0::MemWrite               6379105      6.31%    100.00% # Class of committed instruction
system.cpu.op_class_0::FloatMemRead                 0      0.00%    100.00% # Class of committed instruction
system.cpu.op_class_0::FloatMemWrite                0      0.00%    100.00% # Class of committed instruction
system.cpu.op_class_0::IprAccess                    0      0.00%    100.00% # Class of committed instruction
system.cpu.op_class_0::InstPrefetch                 0      0.00%    100.00% # Class of committed instruction
system.cpu.op_class_0::total                101102730                       # Class of committed instruction
system.cpu.tickCycles                       119313036                       # Number of cycles that the object actually ticked
system.cpu.workload.numSyscalls                    32                       # Number of system calls
system.membus.snoop_filter.hit_multi_requests            0                       # Number of requests hitting in the snoop filter with multiple (>1) holders of the requested data.
system.membus.snoop_filter.hit_multi_snoops            0                       # Number of snoops hitting in the snoop filter with multiple (>1) holders of the requested data.
system.membus.snoop_filter.hit_single_requests            0                       # Number of requests hitting in the snoop filter with a single holder of the requested data.
system.membus.snoop_filter.hit_single_snoops            0                       # Number of snoops hitting in the snoop filter with a single holder of the requested data.
system.membus.snoop_filter.tot_requests          5479                       # Total number of requests made to the snoop filter.
system.membus.snoop_filter.tot_snoops               0                       # Total number of snoops made to the snoop filter.
system.tol2bus.snoop_filter.hit_multi_requests        27226                       # Number of requests hitting in the snoop filter with multiple (>1) holders of the requested data.
system.tol2bus.snoop_filter.hit_multi_snoops            0                       # Number of snoops hitting in the snoop filter with multiple (>1) holders of the requested data.
system.tol2bus.snoop_filter.hit_single_requests       706596                       # Number of requests hitting in the snoop filter with a single holder of the requested data.
system.tol2bus.snoop_filter.hit_single_snoops            0                       # Number of snoops hitting in the snoop filter with a single holder of the requested data.
system.tol2bus.snoop_filter.tot_requests      1414694                       # Total number of requests made to the snoop filter.
system.tol2bus.snoop_filter.tot_snoops              0                       # Total number of snoops made to the snoop filter.
system.clk_domain.clock                          1000                       # Clock period in ticks
system.cpu.branchPred.lookups                 6491026                       # Number of BP lookups
system.cpu.branchPred.condPredicted           5087395                       # Number of conditional branches predicted
system.cpu.branchPred.condIncorrect            349152                       # Number of conditional branches incorrect
system.cpu.branchPred.BTBLookups              4077035                       # Number of BTB lookups
system.cpu.branchPred.BTBHits                 4069863                       # Number of BTB hits
system.cpu.branchPred.BTBHitPct             99.824088                       # BTB Hit Percentage
system.cpu.branchPred.RASUsed                  315101                       # Number of times the RAS was used to get a target.
system.cpu.branchPred.RASIncorrect                  4                       # Number of incorrect RAS predictions.
system.cpu.branchPred.indirectLookups          675634                       # Number of indirect predictor lookups.
system.cpu.branchPred.indirectHits             102892                       # Number of indirect target hits.
system.cpu.branchPred.indirectMisses           572742                       # Number of indirect misses.
system.cpu.branchPred.indirectMispredicted        37440                       # Number of mispredicted indirect branches.
system.cpu.dcache.demand_hits::.cpu.data     43762026                       # number of demand (read+write) hits
system.cpu.dcache.demand_hits::total         43762026                       # number of demand (read+write) hits
system.cpu.dcache.overall_hits::.cpu.data     43770588                       # number of overall hits
system.cpu.dcache.overall_hits::total        43770588                       # number of overall hits
system.cpu.dcache.demand_misses::.cpu.data       136905                       # number of demand (read+write) misses
system.cpu.dcache.demand_misses::total         136905                       # number of demand (read+write) misses
system.cpu.dcache.overall_misses::.cpu.data       137059                       # number of overall misses
system.cpu.dcache.overall_misses::total        137059                       # number of overall misses
system.cpu.dcache.demand_miss_latency::.cpu.data   3304144580                       # number of demand (read+write) miss cycles
system.cpu.dcache.demand_miss_latency::total   3304144580                       # number of demand (read+write) miss cycles
system.cpu.dcache.overall_miss_latency::.cpu.data   3304144580                       # number of overall miss cycles
system.cpu.dcache.overall_miss_latency::total   3304144580                       # number of overall miss cycles
system.cpu.dcache.demand_accesses::.cpu.data     43898931                       # number of demand (read+write) accesses
system.cpu.dcache.demand_accesses::total     43898931                       # number of demand (read+write) accesses
system.cpu.dcache.overall_accesses::.cpu.data     43907647                       # number of overall (read+write) accesses
system.cpu.dcache.overall_accesses::total     43907647                       # number of overall (read+write) accesses
system.cpu.dcache.demand_miss_rate::.cpu.data     0.003119                       # miss rate for demand accesses
system.cpu.dcache.demand_miss_rate::total     0.003119                       # miss rate for demand accesses
system.cpu.dcache.overall_miss_rate::.cpu.data     0.003122                       # miss rate for overall accesses
system.cpu.dcache.overall_miss_rate::total     0.003122                       # miss rate for overall accesses
system.cpu.dcache.demand_avg_miss_latency::.cpu.data 24134.579307                       # average overall miss latency
system.cpu.dcache.demand_avg_miss_latency::total 24134.579307                       # average overall miss latency
system.cpu.dcache.overall_avg_miss_latency::.cpu.data 24107.461604                       # average overall miss latency
system.cpu.dcache.overall_avg_miss_latency::total 24107.461604                       # average overall miss latency
system.cpu.dcache.blocked_cycles::no_mshrs           87                       # number of cycles access was blocked
system.cpu.dcache.blocked_cycles::no_targets            0                       # number of cycles access was blocked
system.cpu.dcache.blocked::no_mshrs                 1                       # number of cycles access was blocked
system.cpu.dcache.blocked::no_targets               0                       # number of cycles access was blocked
system.cpu.dcache.avg_blocked_cycles::no_mshrs           87                       # average number of cycles each access was blocked
system.cpu.dcache.avg_blocked_cycles::no_targets          nan                       # average number of cycles each access was blocked
system.cpu.dcache.writebacks::.writebacks       124587                       # number of writebacks
system.cpu.dcache.writebacks::total            124587                       # number of writebacks
system.cpu.dcache.demand_mshr_hits::.cpu.data         9076                       # number of demand (read+write) MSHR hits
system.cpu.dcache.demand_mshr_hits::total         9076                       # number of demand (read+write) MSHR hits
system.cpu.dcache.overall_mshr_hits::.cpu.data         9076                       # number of overall MSHR hits
system.cpu.dcache.overall_mshr_hits::total         9076                       # number of overall MSHR hits
system.cpu.dcache.demand_mshr_misses::.cpu.data       127829                       # number of demand (read+write) MSHR misses
system.cpu.dcache.demand_mshr_misses::total       127829                       # number of demand (read+write) MSHR misses
system.cpu.dcache.overall_mshr_misses::.cpu.data       127971                       # number of overall MSHR misses
system.cpu.dcache.overall_mshr_misses::total       127971                       # number of overall MSHR misses
system.cpu.dcache.demand_mshr_miss_latency::.cpu.data   2819245585                       # number of demand (read+write) MSHR miss cycles
system.cpu.dcache.demand_mshr_miss_latency::total   2819245585                       # number of demand (read+write) MSHR miss cycles
system.cpu.dcache.overall_mshr_miss_latency::.cpu.data   2827747834                       # number of overall MSHR miss cycles
system.cpu.dcache.overall_mshr_miss_latency::total   2827747834                       # number of overall MSHR miss cycles
system.cpu.dcache.demand_mshr_miss_rate::.cpu.data     0.002912                       # mshr miss rate for demand accesses
system.cpu.dcache.demand_mshr_miss_rate::total     0.002912                       # mshr miss rate for demand accesses
system.cpu.dcache.overall_mshr_miss_rate::.cpu.data     0.002915                       # mshr miss rate for overall accesses
system.cpu.dcache.overall_mshr_miss_rate::total     0.002915                       # mshr miss rate for overall accesses
system.cpu.dcache.demand_avg_mshr_miss_latency::.cpu.data 22054.819994                       # average overall mshr miss latency
system.cpu.dcache.demand_avg_mshr_miss_latency::total 22054.819994                       # average overall mshr miss latency
system.cpu.dcache.overall_avg_mshr_miss_latency::.cpu.data 22096.786256                       # average overall mshr miss latency
system.cpu.dcache.overall_avg_mshr_miss_latency::total 22096.786256                       # average overall mshr miss latency
system.cpu.dcache.replacements                 126948                       # number of replacements
system.cpu.dcache.ReadReq_hits::.cpu.data     37505633                       # number of ReadReq hits
system.cpu.dcache.ReadReq_hits::total        37505633                       # number of ReadReq hits
system.cpu.dcache.ReadReq_misses::.cpu.data        72450                       # number of ReadReq misses
system.cpu.dcache.ReadReq_misses::total         72450                       # number of ReadReq misses
system.cpu.dcache.ReadReq_miss_latency::.cpu.data   1704359087                       # number of ReadReq miss cycles
system.cpu.dcache.ReadReq_miss_latency::total   1704359087                       # number of ReadReq miss cycles
system.cpu.dcache.ReadReq_accesses::.cpu.data     37578083                       # number of ReadReq accesses(hits+misses)
system.cpu.dcache.ReadReq_accesses::total     37578083                       # number of ReadReq accesses(hits+misses)
system.cpu.dcache.ReadReq_miss_rate::.cpu.data     0.001928                       # miss rate for ReadReq accesses
system.cpu.dcache.ReadReq_miss_rate::total     0.001928                       # miss rate for ReadReq accesses
system.cpu.dcache.ReadReq_avg_miss_latency::.cpu.data 23524.625079                       # average ReadReq miss latency
system.cpu.dcache.ReadReq_avg_miss_latency::total 23524.625079                       # average ReadReq miss latency
system.cpu.dcache.ReadReq_mshr_hits::.cpu.data         3353                       # number of ReadReq MSHR hits
system.cpu.dcache.ReadReq_mshr_hits::total         3353                       # number of ReadReq MSHR hits
system.cpu.dcache.ReadReq_mshr_misses::.cpu.data        69097                       # number of ReadReq MSHR misses
system.cpu.dcache.ReadReq_mshr_misses::total        69097                       # number of ReadReq MSHR misses
system.cpu.dcache.ReadReq_mshr_miss_latency::.cpu.data   1539261246                       # number of ReadReq MSHR miss cycles
system.cpu.dcache.ReadReq_mshr_miss_latency::total   1539261246                       # number of ReadReq MSHR miss cycles
system.cpu.dcache.ReadReq_mshr_miss_rate::.cpu.data     0.001839                       # mshr miss rate for ReadReq accesses
system.cpu.dcache.ReadReq_mshr_miss_rate::total     0.001839                       # mshr miss rate for ReadReq accesses
system.cpu.dcache.ReadReq_avg_mshr_miss_latency::.cpu.data 22276.817315                       # average ReadReq mshr miss latency
system.cpu.dcache.ReadReq_avg_mshr_miss_latency::total 22276.817315                       # average ReadReq mshr miss latency
system.cpu.dcache.WriteReq_hits::.cpu.data      6256393                       # number of WriteReq hits
system.cpu.dcache.WriteReq_hits::total        6256393                       # number of WriteReq hits
system.cpu.dcache.WriteReq_misses::.cpu.data        64455                       # number of WriteReq misses
system.cpu.dcache.WriteReq_misses::total        64455                       # number of WriteReq misses
system.cpu.dcache.WriteReq_miss_latency::.cpu.data   1599785493                       # number of WriteReq miss cycles
system.cpu.dcache.WriteReq_miss_latency::total   1599785493                       # number of WriteReq miss cycles
system.cpu.dcache.WriteReq_accesses::.cpu.data      6320848                       # number of WriteReq accesses(hits+misses)
system.cpu.dcache.WriteReq_accesses::total      6320848                       # number of WriteReq accesses(hits+misses)
system.cpu.dcache.WriteReq_miss_rate::.cpu.data     0.010197                       # miss rate for WriteReq accesses
system.cpu.dcache.WriteReq_miss_rate::total     0.010197                       # miss rate for WriteReq accesses
system.cpu.dcache.WriteReq_avg_miss_latency::.cpu.data 24820.192274                       # average WriteReq miss latency
system.cpu.dcache.WriteReq_avg_miss_latency::total 24820.192274                       # average WriteReq miss latency
system.cpu.dcache.WriteReq_mshr_hits::.cpu.data         5723                       # number of WriteReq MSHR hits
system.cpu.dcache.WriteReq_mshr_hits::total         5723                       # number of WriteReq MSHR hits
system.cpu.dcache.WriteReq_mshr_misses::.cpu.data        58732                       # number of WriteReq MSHR misses
system.cpu.dcache.WriteReq_mshr_misses::total        58732                       # number of WriteReq MSHR misses
system.cpu.dcache.WriteReq_mshr_miss_latency::.cpu.data   1279984339                       # number of WriteReq MSHR miss cycles
system.cpu.dcache.WriteReq_mshr_miss_latency::total   1279984339                       # number of WriteReq MSHR miss cycles
system.cpu.dcache.WriteReq_mshr_miss_rate::.cpu.data     0.009292                       # mshr miss rate for WriteReq accesses
system.cpu.dcache.WriteReq_mshr_miss_rate::total     0.009292                       # mshr miss rate for WriteReq accesses
system.cpu.dcache.WriteReq_avg_mshr_miss_latency::.cpu.data 21793.644674                       # average WriteReq mshr miss latency
system.cpu.dcache.WriteReq_avg_mshr_miss_latency::total 21793.644674                       # average WriteReq mshr miss latency
system.cpu.dcache.SoftPFReq_hits::.cpu.data         8562                       # number of SoftPFReq hits
system.cpu.dcache.SoftPFReq_hits::total          8562                       # number of SoftPFReq hits
system.cpu.dcache.SoftPFReq_misses::.cpu.data          154                       # number of SoftPFReq misses
system.cpu.dcache.SoftPFReq_misses::total          154                       # number of SoftPFReq misses
system.cpu.dcache.SoftPFReq_accesses::.cpu.data         8716                       # number of SoftPFReq accesses(hits+misses)
system.cpu.dcache.SoftPFReq_accesses::total         8716                       # number of SoftPFReq accesses(hits+misses)
system.cpu.dcache.SoftPFReq_miss_rate::.cpu.data     0.017669                       # miss rate for SoftPFReq accesses
system.cpu.dcache.SoftPFReq_miss_rate::total     0.017669                       # miss rate for SoftPFReq accesses
system.cpu.dcache.SoftPFReq_mshr_misses::.cpu.data          142                       # number of SoftPFReq MSHR misses
system.cpu.dcache.SoftPFReq_mshr_misses::total          142                       # number of SoftPFReq MSHR misses
system.cpu.dcache.SoftPFReq_mshr_miss_latency::.cpu.data      8502249                       # number of SoftPFReq MSHR miss cycles
system.cpu.dcache.SoftPFReq_mshr_miss_latency::total      8502249                       # number of SoftPFReq MSHR miss cycles
system.cpu.dcache.SoftPFReq_mshr_miss_rate::.cpu.data     0.016292                       # mshr miss rate for SoftPFReq accesses
system.cpu.dcache.SoftPFReq_mshr_miss_rate::total     0.016292                       # mshr miss rate for SoftPFReq accesses
system.cpu.dcache.SoftPFReq_avg_mshr_miss_latency::.cpu.data 59874.992958                       # average SoftPFReq mshr miss latency
system.cpu.dcache.SoftPFReq_avg_mshr_miss_latency::total 59874.992958                       # average SoftPFReq mshr miss latency
system.cpu.dcache.LoadLockedReq_hits::.cpu.data          165                       # number of LoadLockedReq hits
system.cpu.dcache.LoadLockedReq_hits::total          165                       # number of LoadLockedReq hits
system.cpu.dcache.LoadLockedReq_misses::.cpu.data            1                       # number of LoadLockedReq misses
system.cpu.dcache.LoadLockedReq_misses::total            1                       # number of LoadLockedReq misses
system.cpu.dcache.LoadLockedReq_miss_latency::.cpu.data        94047                       # number of LoadLockedReq miss cycles
system.cpu.dcache.LoadLockedReq_miss_latency::total        94047                       # number of LoadLockedReq miss cycles
system.cpu.dcache.LoadLockedReq_accesses::.cpu.data          166                       # number of LoadLockedReq accesses(hits+misses)
system.cpu.dcache.LoadLockedReq_accesses::total          166                       # number of LoadLockedReq accesses(hits+misses)
system.cpu.dcache.LoadLockedReq_miss_rate::.cpu.data     0.006024                       # miss rate for LoadLockedReq accesses
system.cpu.dcache.LoadLockedReq_miss_rate::total     0.006024                       # miss rate for LoadLockedReq accesses
system.cpu.dcache.LoadLockedReq_avg_miss_latency::.cpu.data        94047                       # average LoadLockedReq miss latency
system.cpu.dcache.LoadLockedReq_avg_miss_latency::total        94047                       # average LoadLockedReq miss latency
system.cpu.dcache.LoadLockedReq_mshr_misses::.cpu.data            1                       # number of LoadLockedReq MSHR misses
system.cpu.dcache.LoadLockedReq_mshr_misses::total            1                       # number of LoadLockedReq MSHR misses
system.cpu.dcache.LoadLockedReq_mshr_miss_latency::.cpu.data        92713                       # number of LoadLockedReq MSHR miss cycles
system.cpu.dcache.LoadLockedReq_mshr_miss_latency::total        92713                       # number of LoadLockedReq MSHR miss cycles
system.cpu.dcache.LoadLockedReq_mshr_miss_rate::.cpu.data     0.006024                       # mshr miss rate for LoadLockedReq accesses
system.cpu.dcache.LoadLockedReq_mshr_miss_rate::total     0.006024                       # mshr miss rate for LoadLockedReq accesses
system.cpu.dcache.LoadLockedReq_avg_mshr_miss_latency::.cpu.data        92713                       # average LoadLockedReq mshr miss latency
system.cpu.dcache.LoadLockedReq_avg_mshr_miss_latency::total        92713                       # average LoadLockedReq mshr miss latency
system.cpu.dcache.StoreCondReq_hits::.cpu.data          166                       # number of StoreCondReq hits
system.cpu.dcache.StoreCondReq_hits::total          166                       # number of StoreCondReq hits
system.cpu.dcache.StoreCondReq_accesses::.cpu.data          166                       # number of StoreCondReq accesses(hits+misses)
system.cpu.dcache.StoreCondReq_accesses::total          166                       # number of StoreCondReq accesses(hits+misses)
system.cpu.dcache.power_state.pwrStateResidencyTicks::UNDEFINED  89133717253                       # Cumulative time (in ticks) in various power states
system.cpu.dcache.tags.tagsinuse          1012.670137                       # Cycle average of tags in use
system.cpu.dcache.tags.total_refs            43898891                       # Total number of references to valid blocks.
system.cpu.dcache.tags.sampled_refs            127972                       # Sample count of references to valid blocks.
system.cpu.dcache.tags.avg_refs            343.035125                       # Average number of references to valid blocks.
system.cpu.dcache.tags.warmup_cycle            192096                       # Cycle when the warmup percentage was hit.
system.cpu.dcache.tags.occ_blocks::.cpu.data  1012.670137                       # Average occupied blocks per requestor
system.cpu.dcache.tags.occ_percent::.cpu.data     0.988936                       # Average percentage of cache occupancy
system.cpu.dcache.tags.occ_percent::total     0.988936                       # Average percentage of cache occupancy
system.cpu.dcache.tags.occ_task_id_blocks::1024         1024                       # Occupied blocks per task id
system.cpu.dcache.tags.age_task_id_blocks_1024::0            5                       # Occupied blocks per task id
system.cpu.dcache.tags.age_task_id_blocks_1024::1           68                       # Occupied blocks per task id
system.cpu.dcache.tags.age_task_id_blocks_1024::2          373                       # Occupied blocks per task id
system.cpu.dcache.tags.age_task_id_blocks_1024::3          459                       # Occupied blocks per task id
system.cpu.dcache.tags.age_task_id_blocks_1024::4          119                       # Occupied blocks per task id
system.cpu.dcache.tags.occ_task_id_percent::1024            1                       # Percentage of cache occupancy per task id
system.cpu.dcache.tags.tag_accesses          44035951                       # Number of tag accesses
system.cpu.dcache.tags.data_accesses         44035951                       # Number of data accesses
system.cpu.dcache.tags.power_state.pwrStateResidencyTicks::UNDEFINED  89133717253                       # Cumulative time (in ticks) in various power states
system.cpu.dtb.instHits                             0                       # ITB inst hits
system.cpu.dtb.instMisses                           0                       # ITB inst misses
system.cpu.dtb.readHits                             0                       # DTB read hits
system.cpu.dtb.readMisses                           0                       # DTB read misses
system.cpu.dtb.writeHits                            0                       # DTB write hits
system.cpu.dtb.writeMisses                          0                       # DTB write misses
system.cpu.dtb.inserts                              0                       # Number of times an entry is inserted into the TLB
system.cpu.dtb.flushTlb                             0                       # Number of times complete TLB was flushed
system.cpu.dtb.flushTlbMva                          0                       # Number of times TLB was flushed by MVA
system.cpu.dtb.flushTlbMvaAsid                      0                       # Number of times TLB was flushed by MVA & ASID
system.cpu.dtb.flushTlbAsid                         0                       # Number of times TLB was flushed by ASID
system.cpu.dtb.flushedEntries                       0                       # Number of entries that have been flushed from TLB
system.cpu.dtb.alignFaults                          0                       # Number of TLB faults due to alignment restrictions
system.cpu.dtb.prefetchFaults                       0                       # Number of TLB faults due to prefetch
system.cpu.dtb.domainFaults                         0                       # Number of TLB faults due to domain restrictions
system.cpu.dtb.permsFaults                          0                       # Number of TLB faults due to permissions restrictions
system.cpu.dtb.readAccesses                         0                       # DTB read accesses
system.cpu.dtb.writeAccesses                        0                       # DTB write accesses
system.cpu.dtb.instAccesses                         0                       # ITB inst accesses
system.cpu.dtb.hits                                 0                       # Total TLB (inst and data) hits
system.cpu.dtb.misses                               0                       # Total TLB (inst and data) misses
system.cpu.dtb.accesses                             0                       # Total TLB (inst and data) accesses
system.cpu.dtb.stage2_mmu.stage2_tlb.instHits            0                       # ITB inst hits
system.cpu.dtb.stage2_mmu.stage2_tlb.instMisses            0                       # ITB inst misses
system.cpu.dtb.stage2_mmu.stage2_tlb.readHits            0                       # DTB read hits
system.cpu.dtb.stage2_mmu.stage2_tlb.readMisses            0                       # DTB read misses
system.cpu.dtb.stage2_mmu.stage2_tlb.writeHits            0                       # DTB write hits
system.cpu.dtb.stage2_mmu.stage2_tlb.writeMisses            0                       # DTB write misses
system.cpu.dtb.stage2_mmu.stage2_tlb.inserts            0                       # Number of times an entry is inserted into the TLB
system.cpu.dtb.stage2_mmu.stage2_tlb.flushTlb            0                       # Number of times complete TLB was flushed
system.cpu.dtb.stage2_mmu.stage2_tlb.flushTlbMva            0                       # Number of times TLB was flushed by MVA
system.cpu.dtb.stage2_mmu.stage2_tlb.flushTlbMvaAsid            0                       # Number of times TLB was flushed by MVA & ASID
system.cpu.dtb.stage2_mmu.stage2_tlb.flushTlbAsid            0                       # Number of times TLB was flushed by ASID
system.cpu.dtb.stage2_mmu.stage2_tlb.flushedEntries            0                       # Number of entries that have been flushed from TLB
system.cpu.dtb.stage2_mmu.stage2_tlb.alignFaults            0                       # Number of TLB faults due to alignment restrictions
system.cpu.dtb.stage2_mmu.stage2_tlb.prefetchFaults            0                       # Number of TLB faults due to prefetch
system.cpu.dtb.stage2_mmu.stage2_tlb.domainFaults            0                       # Number of TLB faults due to domain restrictions
system.cpu.dtb.stage2_mmu.stage2_tlb.permsFaults            0                       # Number of TLB faults due to permissions restrictions
system.cpu.dtb.stage2_mmu.stage2_tlb.readAccesses            0                       # DTB read accesses
system.cpu.dtb.stage2_mmu.stage2_tlb.writeAccesses            0                       # DTB write accesses
system.cpu.dtb.stage2_mmu.stage2_tlb.instAccesses            0                       # ITB inst accesses
system.cpu.dtb.stage2_mmu.stage2_tlb.hits            0                       # Total TLB (inst and data) hits
system.cpu.dtb.stage2_mmu.stage2_tlb.misses            0                       # Total TLB (inst and data) misses
system.cpu.dtb.stage2_mmu.stage2_tlb.accesses            0                       # Total TLB (inst and data) accesses
system.cpu.dtb.stage2_mmu.stage2_tlb.walker.walks            0                       # Table walker walks requested
system.cpu.dtb.stage2_mmu.stage2_tlb.walker.requestOrigin_Requested::Data            0                       # Table walker requests started/completed, data/inst
system.cpu.dtb.stage2_mmu.stage2_tlb.walker.requestOrigin_Requested::Inst            0                       # Table walker requests started/completed, data/inst
system.cpu.dtb.stage2_mmu.stage2_tlb.walker.requestOrigin_Requested::total            0                       # Table walker requests started/completed, data/inst
system.cpu.dtb.stage2_mmu.stage2_tlb.walker.requestOrigin_Completed::Data            0                       # Table walker requests started/completed, data/inst
system.cpu.dtb.stage2_mmu.stage2_tlb.walker.requestOrigin_Completed::Inst            0                       # Table walker requests started/completed, data/inst
system.cpu.dtb.stage2_mmu.stage2_tlb.walker.requestOrigin_Completed::total            0                       # Table walker requests started/completed, data/inst
system.cpu.dtb.stage2_mmu.stage2_tlb.walker.requestOrigin::total            0                       # Table walker requests started/completed, data/inst
system.cpu.dtb.stage2_mmu.stage2_tlb.walker.power_state.pwrStateResidencyTicks::UNDEFINED  89133717253                       # Cumulative time (in ticks) in various power states
system.cpu.dtb.walker.walks                         0                       # Table walker walks requested
system.cpu.dtb.walker.requestOrigin_Requested::Data            0                       # Table walker requests started/completed, data/inst
system.cpu.dtb.walker.requestOrigin_Requested::Inst            0                       # Table walker requests started/completed, data/inst
system.cpu.dtb.walker.requestOrigin_Requested::total            0                       # Table walker requests started/completed, data/inst
system.cpu.dtb.walker.requestOrigin_Completed::Data            0                       # Table walker requests started/completed, data/inst
system.cpu.dtb.walker.requestOrigin_Completed::Inst            0                       # Table walker requests started/completed, data/inst
system.cpu.dtb.walker.requestOrigin_Completed::total            0                       # Table walker requests started/completed, data/inst
system.cpu.dtb.walker.requestOrigin::total            0                       # Table walker requests started/completed, data/inst
system.cpu.dtb.walker.power_state.pwrStateResidencyTicks::UNDEFINED  89133717253                       # Cumulative time (in ticks) in various power states
system.cpu.fetch2.intInstructions            48449921                       # Number of integer instructions successfully decoded
system.cpu.fetch2.fpInstructions                    0                       # Number of floating point instructions successfully decoded
system.cpu.fetch2.vecInstructions                   0                       # Number of SIMD instructions successfully decoded
system.cpu.fetch2.loadInstructions           40533895                       # Number of memory load instructions successfully decoded
system.cpu.fetch2.storeInstructions           6243397                       # Number of memory store instructions successfully decoded
system.cpu.fetch2.amoInstructions                   0                       # Number of memory atomic instructions successfully decoded
system.cpu.icache.demand_hits::.cpu.inst     16383810                       # number of demand (read+write) hits
system.cpu.icache.demand_hits::total         16383810                       # number of demand (read+write) hits
system.cpu.icache.overall_hits::.cpu.inst     16383810                       # number of overall hits
system.cpu.icache.overall_hits::total        16383810                       # number of overall hits
system.cpu.icache.demand_misses::.cpu.inst       580131                       # number of demand (read+write) misses
system.cpu.icache.demand_misses::total         580131                       # number of demand (read+write) misses
system.cpu.icache.overall_misses::.cpu.inst       580131                       # number of overall misses
system.cpu.icache.overall_misses::total        580131                       # number of overall misses
system.cpu.icache.demand_miss_latency::.cpu.inst  11329849427                       # number of demand (read+write) miss cycles
system.cpu.icache.demand_miss_latency::total  11329849427                       # number of demand (read+write) miss cycles
system.cpu.icache.overall_miss_latency::.cpu.inst  11329849427                       # number of overall miss cycles
system.cpu.icache.overall_miss_latency::total  11329849427                       # number of overall miss cycles
system.cpu.icache.demand_accesses::.cpu.inst     16963941                       # number of demand (read+write) accesses
system.cpu.icache.demand_accesses::total     16963941                       # number of demand (read+write) accesses
system.cpu.icache.overall_accesses::.cpu.inst     16963941                       # number of overall (read+write) accesses
system.cpu.icache.overall_accesses::total     16963941                       # number of overall (read+write) accesses
system.cpu.icache.demand_miss_rate::.cpu.inst     0.034198                       # miss rate for demand accesses
system.cpu.icache.demand_miss_rate::total     0.034198                       # miss rate for demand accesses
system.cpu.icache.overall_miss_rate::.cpu.inst     0.034198                       # miss rate for overall accesses
system.cpu.icache.overall_miss_rate::total     0.034198                       # miss rate for overall accesses
system.cpu.icache.demand_avg_miss_latency::.cpu.inst 19529.812106                       # average overall miss latency
system.cpu.icache.demand_avg_miss_latency::total 19529.812106                       # average overall miss latency
system.cpu.icache.overall_avg_miss_latency::.cpu.inst 19529.812106                       # average overall miss latency
system.cpu.icache.overall_avg_miss_latency::total 19529.812106                       # average overall miss latency
system.cpu.icache.blocked_cycles::no_mshrs            0                       # number of cycles access was blocked
system.cpu.icache.blocked_cycles::no_targets            0                       # number of cycles access was blocked
system.cpu.icache.blocked::no_mshrs                 0                       # number of cycles access was blocked
system.cpu.icache.blocked::no_targets               0                       # number of cycles access was blocked
system.cpu.icache.avg_blocked_cycles::no_mshrs          nan                       # average number of cycles each access was blocked
system.cpu.icache.avg_blocked_cycles::no_targets          nan                       # average number of cycles each access was blocked
system.cpu.icache.writebacks::.writebacks       579643                       # number of writebacks
system.cpu.icache.writebacks::total            579643                       # number of writebacks
system.cpu.icache.demand_mshr_misses::.cpu.inst       580131                       # number of demand (read+write) MSHR misses
system.cpu.icache.demand_mshr_misses::total       580131                       # number of demand (read+write) MSHR misses
system.cpu.icache.overall_mshr_misses::.cpu.inst       580131                       # number of overall MSHR misses
system.cpu.icache.overall_mshr_misses::total       580131                       # number of overall MSHR misses
system.cpu.icache.demand_mshr_miss_latency::.cpu.inst  10555954673                       # number of demand (read+write) MSHR miss cycles
system.cpu.icache.demand_mshr_miss_latency::total  10555954673                       # number of demand (read+write) MSHR miss cycles
system.cpu.icache.overall_mshr_miss_latency::.cpu.inst  10555954673                       # number of overall MSHR miss cycles
system.cpu.icache.overall_mshr_miss_latency::total  10555954673                       # number of overall MSHR miss cycles
system.cpu.icache.demand_mshr_miss_rate::.cpu.inst     0.034198                       # mshr miss rate for demand accesses
system.cpu.icache.demand_mshr_miss_rate::total     0.034198                       # mshr miss rate for demand accesses
system.cpu.icache.overall_mshr_miss_rate::.cpu.inst     0.034198                       # mshr miss rate for overall accesses
system.cpu.icache.overall_mshr_miss_rate::total     0.034198                       # mshr miss rate for overall accesses
system.cpu.icache.demand_avg_mshr_miss_latency::.cpu.inst 18195.812106                       # average overall mshr miss latency
system.cpu.icache.demand_avg_mshr_miss_latency::total 18195.812106                       # average overall mshr miss latency
system.cpu.icache.overall_avg_mshr_miss_latency::.cpu.inst 18195.812106                       # average overall mshr miss latency
system.cpu.icache.overall_avg_mshr_miss_latency::total 18195.812106                       # average overall mshr miss latency
system.cpu.icache.replacements                 579643                       # number of replacements
system.cpu.icache.ReadReq_hits::.cpu.inst     16383810                       # number of ReadReq hits
system.cpu.icache.ReadReq_hits::total        16383810                       # number of ReadReq hits
system.cpu.icache.ReadReq_misses::.cpu.inst       580131                       # number of ReadReq misses
system.cpu.icache.ReadReq_misses::total        580131                       # number of ReadReq misses
system.cpu.icache.ReadReq_miss_latency::.cpu.inst  11329849427                       # number of ReadReq miss cycles
system.cpu.icache.ReadReq_miss_latency::total  11329849427                       # number of ReadReq miss cycles
system.cpu.icache.ReadReq_accesses::.cpu.inst     16963941                       # number of ReadReq accesses(hits+misses)
system.cpu.icache.ReadReq_accesses::total     16963941                       # number of ReadReq accesses(hits+misses)
system.cpu.icache.ReadReq_miss_rate::.cpu.inst     0.034198                       # miss rate for ReadReq accesses
system.cpu.icache.ReadReq_miss_rate::total     0.034198                       # miss rate for ReadReq accesses
system.cpu.icache.ReadReq_avg_miss_latency::.cpu.inst 19529.812106                       # average ReadReq miss latency
system.cpu.icache.ReadReq_avg_miss_latency::total 19529.812106                       # average ReadReq miss latency
system.cpu.icache.ReadReq_mshr_misses::.cpu.inst       580131                       # number of ReadReq MSHR misses
system.cpu.icache.ReadReq_mshr_misses::total       580131                       # number of ReadReq MSHR misses
system.cpu.icache.ReadReq_mshr_miss_latency::.cpu.inst  10555954673                       # number of ReadReq MSHR miss cycles
system.cpu.icache.ReadReq_mshr_miss_latency::total  10555954673                       # number of ReadReq MSHR miss cycles
system.cpu.icache.ReadReq_mshr_miss_rate::.cpu.inst     0.034198                       # mshr miss rate for ReadReq accesses
system.cpu.icache.ReadReq_mshr_miss_rate::total     0.034198                       # mshr miss rate for ReadReq accesses
system.cpu.icache.ReadReq_avg_mshr_miss_latency::.cpu.inst 18195.812106                       # average ReadReq mshr miss latency
system.cpu.icache.ReadReq_avg_mshr_miss_latency::total 18195.812106                       # average ReadReq mshr miss latency
system.cpu.icache.power_state.pwrStateResidencyTicks::UNDEFINED  89133717253                       # Cumulative time (in ticks) in various power states
system.cpu.icache.tags.tagsinuse           487.512335                       # Cycle average of tags in use
system.cpu.icache.tags.total_refs            16963941                       # Total number of references to valid blocks.
system.cpu.icache.tags.sampled_refs            580131                       # Sample count of references to valid blocks.
system.cpu.icache.tags.avg_refs             29.241570                       # Average number of references to valid blocks.
system.cpu.icache.tags.warmup_cycle             94047                       # Cycle when the warmup percentage was hit.
system.cpu.icache.tags.occ_blocks::.cpu.inst   487.512335                       # Average occupied blocks per requestor
system.cpu.icache.tags.occ_percent::.cpu.inst     0.952173                       # Average percentage of cache occupancy
system.cpu.icache.tags.occ_percent::total     0.952173                       # Average percentage of cache occupancy
system.cpu.icache.tags.occ_task_id_blocks::1024          488                       # Occupied blocks per task id
system.cpu.icache.tags.age_task_id_blocks_1024::2           25                       # Occupied blocks per task id
system.cpu.icache.tags.age_task_id_blocks_1024::3            4                       # Occupied blocks per task id
system.cpu.icache.tags.age_task_id_blocks_1024::4          459                       # Occupied blocks per task id
system.cpu.icache.tags.occ_task_id_percent::1024     0.953125                       # Percentage of cache occupancy per task id
system.cpu.icache.tags.tag_accesses          17544072                       # Number of tag accesses
system.cpu.icache.tags.data_accesses         17544072                       # Number of data accesses
system.cpu.icache.tags.power_state.pwrStateResidencyTicks::UNDEFINED  89133717253                       # Cumulative time (in ticks) in various power states
system.cpu.itb.instHits                             0                       # ITB inst hits
system.cpu.itb.instMisses                           0                       # ITB inst misses
system.cpu.itb.readHits                             0                       # DTB read hits
system.cpu.itb.readMisses                           0                       # DTB read misses
system.cpu.itb.writeHits                            0                       # DTB write hits
system.cpu.itb.writeMisses                          0                       # DTB write misses
system.cpu.itb.inserts                              0                       # Number of times an entry is inserted into the TLB
system.cpu.itb.flushTlb                             0                       # Number of times complete TLB was flushed
system.cpu.itb.flushTlbMva                          0                       # Number of times TLB was flushed by MVA
system.cpu.itb.flushTlbMvaAsid                      0                       # Number of times TLB was flushed by MVA & ASID
system.cpu.itb.flushTlbAsid                         0                       # Number of times TLB was flushed by ASID
system.cpu.itb.flushedEntries                       0                       # Number of entries that have been flushed from TLB
system.cpu.itb.alignFaults                          0                       # Number of TLB faults due to alignment restrictions
system.cpu.itb.prefetchFaults                       0                       # Number of TLB faults due to prefetch
system.cpu.itb.domainFaults                         0                       # Number of TLB faults due to domain restrictions
system.cpu.itb.permsFaults                          0                       # Number of TLB faults due to permissions restrictions
system.cpu.itb.readAccesses                         0                       # DTB read accesses
system.cpu.itb.writeAccesses                        0                       # DTB write accesses
system.cpu.itb.instAccesses                         0                       # ITB inst accesses
system.cpu.itb.hits                                 0                       # Total TLB (inst and data) hits
system.cpu.itb.misses                               0                       # Total TLB (inst and data) misses
system.cpu.itb.accesses                             0                       # Total TLB (inst and data) accesses
system.cpu.itb.stage2_mmu.stage2_tlb.instHits            0                       # ITB inst hits
system.cpu.itb.stage2_mmu.stage2_tlb.instMisses            0                       # ITB inst misses
system.cpu.itb.stage2_mmu.stage2_tlb.readHits            0                       # DTB read hits
system.cpu.itb.stage2_mmu.stage2_tlb.readMisses            0                       # DTB read misses
system.cpu.itb.stage2_mmu.stage2_tlb.writeHits            0                       # DTB write hits
system.cpu.itb.stage2_mmu.stage2_tlb.writeMisses            0                       # DTB write misses
system.cpu.itb.stage2_mmu.stage2_tlb.inserts            0                       # Number of times an entry is inserted into the TLB
system.cpu.itb.stage2_mmu.stage2_tlb.flushTlb            0                       # Number of times complete TLB was flushed
system.cpu.itb.stage2_mmu.stage2_tlb.flushTlbMva            0                       # Number of times TLB was flushed by MVA
system.cpu.itb.stage2_mmu.stage2_tlb.flushTlbMvaAsid            0                       # Number of times TLB was flushed by MVA & ASID
system.cpu.itb.stage2_mmu.stage2_tlb.flushTlbAsid            0                       # Number of times TLB was flushed by ASID
system.cpu.itb.stage2_mmu.stage2_tlb.flushedEntries            0                       # Number of entries that have been flushed from TLB
system.cpu.itb.stage2_mmu.stage2_tlb.alignFaults            0                       # Number of TLB faults due to alignment restrictions
system.cpu.itb.stage2_mmu.stage2_tlb.prefetchFaults            0                       # Number of TLB faults due to prefetch
system.cpu.itb.stage2_mmu.stage2_tlb.domainFaults            0                       # Number of TLB faults due to domain restrictions
system.cpu.itb.stage2_mmu.stage2_tlb.permsFaults            0                       # Number of TLB faults due to permissions restrictions
system.cpu.itb.stage2_mmu.stage2_tlb.readAccesses            0                       # DTB read accesses
system.cpu.itb.stage2_mmu.stage2_tlb.writeAccesses            0                       # DTB write accesses
system.cpu.itb.stage2_mmu.stage2_tlb.instAccesses            0                       # ITB inst accesses
system.cpu.itb.stage2_mmu.stage2_tlb.hits            0                       # Total TLB (inst and data) hits
system.cpu.itb.stage2_mmu.stage2_tlb.misses            0                       # Total TLB (inst and data) misses
system.cpu.itb.stage2_mmu.stage2_tlb.accesses            0                       # Total TLB (inst and data) accesses
system.cpu.itb.stage2_mmu.stage2_tlb.walker.walks            0                       # Table walker walks requested
system.cpu.itb.stage2_mmu.stage2_tlb.walker.requestOrigin_Requested::Data            0                       # Table walker requests started/completed, data/inst
system.cpu.itb.stage2_mmu.stage2_tlb.walker.requestOrigin_Requested::Inst            0                       # Table walker requests started/completed, data/inst
system.cpu.itb.stage2_mmu.stage2_tlb.walker.requestOrigin_Requested::total            0                       # Table walker requests started/completed, data/inst
system.cpu.itb.stage2_mmu.stage2_tlb.walker.requestOrigin_Completed::Data            0                       # Table walker requests started/completed, data/inst
system.cpu.itb.stage2_mmu.stage2_tlb.walker.requestOrigin_Completed::Inst            0                       # Table walker requests started/completed, data/inst
system.cpu.itb.stage2_mmu.stage2_tlb.walker.requestOrigin_Completed::total            0                       # Table walker requests started/completed, data/inst
system.cpu.itb.stage2_mmu.stage2_tlb.walker.requestOrigin::total            0                       # Table walker requests started/completed, data/inst
system.cpu.itb.stage2_mmu.stage2_tlb.walker.power_state.pwrStateResidencyTicks::UNDEFINED  89133717253                       # Cumulative time (in ticks) in various power states
system.cpu.itb.walker.walks                         0                       # Table walker walks requested
system.cpu.itb.walker.requestOrigin_Requested::Data            0                       # Table walker requests started/completed, data/inst
system.cpu.itb.walker.requestOrigin_Requested::Inst            0                       # Table walker requests started/completed, data/inst
system.cpu.itb.walker.requestOrigin_Requested::total            0                       # Table walker requests started/completed, data/inst
system.cpu.itb.walker.requestOrigin_Completed::Data            0                       # Table walker requests started/completed, data/inst
system.cpu.itb.walker.requestOrigin_Completed::Inst            0                       # Table walker requests started/completed, data/inst
system.cpu.itb.walker.requestOrigin_Completed::total            0                       # Table walker requests started/completed, data/inst
system.cpu.itb.walker.requestOrigin::total            0                       # Table walker requests started/completed, data/inst
system.cpu.itb.walker.power_state.pwrStateResidencyTicks::UNDEFINED  89133717253                       # Cumulative time (in ticks) in various power states
system.cpu.power_state.pwrStateResidencyTicks::ON  89133717253                       # Cumulative time (in ticks) in various power states
system.cpu.thread_0.numInsts                100000000                       # Number of Instructions committed
system.cpu.thread_0.numOps                  101102730                       # Number of Ops committed
system.cpu.thread_0.numMemRefs                      0                       # Number of Memory References
system.cpu_clk_domain.clock                       667                       # Clock period in ticks
system.cpu_voltage_domain.voltage                   1                       # Voltage in Volts
system.l2.demand_hits::.cpu.inst               578837                       # number of demand (read+write) hits
system.l2.demand_hits::.cpu.data               123780                       # number of demand (read+write) hits
system.l2.demand_hits::total                   702617                       # number of demand (read+write) hits
system.l2.overall_hits::.cpu.inst              578837                       # number of overall hits
system.l2.overall_hits::.cpu.data              123780                       # number of overall hits
system.l2.overall_hits::total                  702617                       # number of overall hits
system.l2.demand_misses::.cpu.inst               1294                       # number of demand (read+write) misses
system.l2.demand_misses::.cpu.data               4192                       # number of demand (read+write) misses
system.l2.demand_misses::total                   5486                       # number of demand (read+write) misses
system.l2.overall_misses::.cpu.inst              1294                       # number of overall misses
system.l2.overall_misses::.cpu.data              4192                       # number of overall misses
system.l2.overall_misses::total                  5486                       # number of overall misses
system.l2.demand_miss_latency::.cpu.inst    108845729                       # number of demand (read+write) miss cycles
system.l2.demand_miss_latency::.cpu.data    353144484                       # number of demand (read+write) miss cycles
system.l2.demand_miss_latency::total        461990213                       # number of demand (read+write) miss cycles
system.l2.overall_miss_latency::.cpu.inst    108845729                       # number of overall miss cycles
system.l2.overall_miss_latency::.cpu.data    353144484                       # number of overall miss cycles
system.l2.overall_miss_latency::total       461990213                       # number of overall miss cycles
system.l2.demand_accesses::.cpu.inst           580131                       # number of demand (read+write) accesses
system.l2.demand_accesses::.cpu.data           127972                       # number of demand (read+write) accesses
system.l2.demand_accesses::total               708103                       # number of demand (read+write) accesses
system.l2.overall_accesses::.cpu.inst          580131                       # number of overall (read+write) accesses
system.l2.overall_accesses::.cpu.data          127972                       # number of overall (read+write) accesses
system.l2.overall_accesses::total              708103                       # number of overall (read+write) accesses
system.l2.demand_miss_rate::.cpu.inst        0.002231                       # miss rate for demand accesses
system.l2.demand_miss_rate::.cpu.data        0.032757                       # miss rate for demand accesses
system.l2.demand_miss_rate::total            0.007747                       # miss rate for demand accesses
system.l2.overall_miss_rate::.cpu.inst       0.002231                       # miss rate for overall accesses
system.l2.overall_miss_rate::.cpu.data       0.032757                       # miss rate for overall accesses
system.l2.overall_miss_rate::total           0.007747                       # miss rate for overall accesses
system.l2.demand_avg_miss_latency::.cpu.inst 84115.710201                       # average overall miss latency
system.l2.demand_avg_miss_latency::.cpu.data 84242.481870                       # average overall miss latency
system.l2.demand_avg_miss_latency::total 84212.579840                       # average overall miss latency
system.l2.overall_avg_miss_latency::.cpu.inst 84115.710201                       # average overall miss latency
system.l2.overall_avg_miss_latency::.cpu.data 84242.481870                       # average overall miss latency
system.l2.overall_avg_miss_latency::total 84212.579840                       # average overall miss latency
system.l2.blocked_cycles::no_mshrs                  0                       # number of cycles access was blocked
system.l2.blocked_cycles::no_targets                0                       # number of cycles access was blocked
system.l2.blocked::no_mshrs                         0                       # number of cycles access was blocked
system.l2.blocked::no_targets                       0                       # number of cycles access was blocked
system.l2.avg_blocked_cycles::no_mshrs            nan                       # average number of cycles each access was blocked
system.l2.avg_blocked_cycles::no_targets          nan                       # average number of cycles each access was blocked
system.l2.demand_mshr_hits::.cpu.inst               1                       # number of demand (read+write) MSHR hits
system.l2.demand_mshr_hits::.cpu.data               6                       # number of demand (read+write) MSHR hits
system.l2.demand_mshr_hits::total                   7                       # number of demand (read+write) MSHR hits
system.l2.overall_mshr_hits::.cpu.inst              1                       # number of overall MSHR hits
system.l2.overall_mshr_hits::.cpu.data              6                       # number of overall MSHR hits
system.l2.overall_mshr_hits::total                  7                       # number of overall MSHR hits
system.l2.demand_mshr_misses::.cpu.inst          1293                       # number of demand (read+write) MSHR misses
system.l2.demand_mshr_misses::.cpu.data          4186                       # number of demand (read+write) MSHR misses
system.l2.demand_mshr_misses::total              5479                       # number of demand (read+write) MSHR misses
system.l2.overall_mshr_misses::.cpu.inst         1293                       # number of overall MSHR misses
system.l2.overall_mshr_misses::.cpu.data         4186                       # number of overall MSHR misses
system.l2.overall_mshr_misses::total             5479                       # number of overall MSHR misses
system.l2.demand_mshr_miss_latency::.cpu.inst     91122789                       # number of demand (read+write) MSHR miss cycles
system.l2.demand_mshr_miss_latency::.cpu.data    295721937                       # number of demand (read+write) MSHR miss cycles
system.l2.demand_mshr_miss_latency::total    386844726                       # number of demand (read+write) MSHR miss cycles
system.l2.overall_mshr_miss_latency::.cpu.inst     91122789                       # number of overall MSHR miss cycles
system.l2.overall_mshr_miss_latency::.cpu.data    295721937                       # number of overall MSHR miss cycles
system.l2.overall_mshr_miss_latency::total    386844726                       # number of overall MSHR miss cycles
system.l2.demand_mshr_miss_rate::.cpu.inst     0.002229                       # mshr miss rate for demand accesses
system.l2.demand_mshr_miss_rate::.cpu.data     0.032710                       # mshr miss rate for demand accesses
system.l2.demand_mshr_miss_rate::total       0.007738                       # mshr miss rate for demand accesses
system.l2.overall_mshr_miss_rate::.cpu.inst     0.002229                       # mshr miss rate for overall accesses
system.l2.overall_mshr_miss_rate::.cpu.data     0.032710                       # mshr miss rate for overall accesses
system.l2.overall_mshr_miss_rate::total      0.007738                       # mshr miss rate for overall accesses
system.l2.demand_avg_mshr_miss_latency::.cpu.inst 70473.928074                       # average overall mshr miss latency
system.l2.demand_avg_mshr_miss_latency::.cpu.data 70645.469900                       # average overall mshr miss latency
system.l2.demand_avg_mshr_miss_latency::total 70604.987406                       # average overall mshr miss latency
system.l2.overall_avg_mshr_miss_latency::.cpu.inst 70473.928074                       # average overall mshr miss latency
system.l2.overall_avg_mshr_miss_latency::.cpu.data 70645.469900                       # average overall mshr miss latency
system.l2.overall_avg_mshr_miss_latency::total 70604.987406                       # average overall mshr miss latency
system.l2.replacements                              0                       # number of replacements
system.l2.WritebackDirty_hits::.writebacks       124587                       # number of WritebackDirty hits
system.l2.WritebackDirty_hits::total           124587                       # number of WritebackDirty hits
system.l2.WritebackDirty_accesses::.writebacks       124587                       # number of WritebackDirty accesses(hits+misses)
system.l2.WritebackDirty_accesses::total       124587                       # number of WritebackDirty accesses(hits+misses)
system.l2.WritebackClean_hits::.writebacks       553354                       # number of WritebackClean hits
system.l2.WritebackClean_hits::total           553354                       # number of WritebackClean hits
system.l2.WritebackClean_accesses::.writebacks       553354                       # number of WritebackClean accesses(hits+misses)
system.l2.WritebackClean_accesses::total       553354                       # number of WritebackClean accesses(hits+misses)
system.l2.ReadExReq_hits::.cpu.data             55066                       # number of ReadExReq hits
system.l2.ReadExReq_hits::total                 55066                       # number of ReadExReq hits
system.l2.ReadExReq_misses::.cpu.data            3666                       # number of ReadExReq misses
system.l2.ReadExReq_misses::total                3666                       # number of ReadExReq misses
system.l2.ReadExReq_miss_latency::.cpu.data    308442811                       # number of ReadExReq miss cycles
system.l2.ReadExReq_miss_latency::total     308442811                       # number of ReadExReq miss cycles
system.l2.ReadExReq_accesses::.cpu.data         58732                       # number of ReadExReq accesses(hits+misses)
system.l2.ReadExReq_accesses::total             58732                       # number of ReadExReq accesses(hits+misses)
system.l2.ReadExReq_miss_rate::.cpu.data     0.062419                       # miss rate for ReadExReq accesses
system.l2.ReadExReq_miss_rate::total         0.062419                       # miss rate for ReadExReq accesses
system.l2.ReadExReq_avg_miss_latency::.cpu.data 84136.064103                       # average ReadExReq miss latency
system.l2.ReadExReq_avg_miss_latency::total 84136.064103                       # average ReadExReq miss latency
system.l2.ReadExReq_mshr_misses::.cpu.data         3666                       # number of ReadExReq MSHR misses
system.l2.ReadExReq_mshr_misses::total           3666                       # number of ReadExReq MSHR misses
system.l2.ReadExReq_mshr_miss_latency::.cpu.data    258515897                       # number of ReadExReq MSHR miss cycles
system.l2.ReadExReq_mshr_miss_latency::total    258515897                       # number of ReadExReq MSHR miss cycles
system.l2.ReadExReq_mshr_miss_rate::.cpu.data     0.062419                       # mshr miss rate for ReadExReq accesses
system.l2.ReadExReq_mshr_miss_rate::total     0.062419                       # mshr miss rate for ReadExReq accesses
system.l2.ReadExReq_avg_mshr_miss_latency::.cpu.data 70517.156847                       # average ReadExReq mshr miss latency
system.l2.ReadExReq_avg_mshr_miss_latency::total 70517.156847                       # average ReadExReq mshr miss latency
system.l2.ReadCleanReq_hits::.cpu.inst         578837                       # number of ReadCleanReq hits
system.l2.ReadCleanReq_hits::total             578837                       # number of ReadCleanReq hits
system.l2.ReadCleanReq_misses::.cpu.inst         1294                       # number of ReadCleanReq misses
system.l2.ReadCleanReq_misses::total             1294                       # number of ReadCleanReq misses
system.l2.ReadCleanReq_miss_latency::.cpu.inst    108845729                       # number of ReadCleanReq miss cycles
system.l2.ReadCleanReq_miss_latency::total    108845729                       # number of ReadCleanReq miss cycles
system.l2.ReadCleanReq_accesses::.cpu.inst       580131                       # number of ReadCleanReq accesses(hits+misses)
system.l2.ReadCleanReq_accesses::total         580131                       # number of ReadCleanReq accesses(hits+misses)
system.l2.ReadCleanReq_miss_rate::.cpu.inst     0.002231                       # miss rate for ReadCleanReq accesses
system.l2.ReadCleanReq_miss_rate::total      0.002231                       # miss rate for ReadCleanReq accesses
system.l2.ReadCleanReq_avg_miss_latency::.cpu.inst 84115.710201                       # average ReadCleanReq miss latency
system.l2.ReadCleanReq_avg_miss_latency::total 84115.710201                       # average ReadCleanReq miss latency
system.l2.ReadCleanReq_mshr_hits::.cpu.inst            1                       # number of ReadCleanReq MSHR hits
system.l2.ReadCleanReq_mshr_hits::total             1                       # number of ReadCleanReq MSHR hits
system.l2.ReadCleanReq_mshr_misses::.cpu.inst         1293                       # number of ReadCleanReq MSHR misses
system.l2.ReadCleanReq_mshr_misses::total         1293                       # number of ReadCleanReq MSHR misses
system.l2.ReadCleanReq_mshr_miss_latency::.cpu.inst     91122789                       # number of ReadCleanReq MSHR miss cycles
system.l2.ReadCleanReq_mshr_miss_latency::total     91122789                       # number of ReadCleanReq MSHR miss cycles
system.l2.ReadCleanReq_mshr_miss_rate::.cpu.inst     0.002229                       # mshr miss rate for ReadCleanReq accesses
system.l2.ReadCleanReq_mshr_miss_rate::total     0.002229                       # mshr miss rate for ReadCleanReq accesses
system.l2.ReadCleanReq_avg_mshr_miss_latency::.cpu.inst 70473.928074                       # average ReadCleanReq mshr miss latency
system.l2.ReadCleanReq_avg_mshr_miss_latency::total 70473.928074                       # average ReadCleanReq mshr miss latency
system.l2.ReadSharedReq_hits::.cpu.data         68714                       # number of ReadSharedReq hits
system.l2.ReadSharedReq_hits::total             68714                       # number of ReadSharedReq hits
system.l2.ReadSharedReq_misses::.cpu.data          526                       # number of ReadSharedReq misses
system.l2.ReadSharedReq_misses::total             526                       # number of ReadSharedReq misses
system.l2.ReadSharedReq_miss_latency::.cpu.data     44701673                       # number of ReadSharedReq miss cycles
system.l2.ReadSharedReq_miss_latency::total     44701673                       # number of ReadSharedReq miss cycles
system.l2.ReadSharedReq_accesses::.cpu.data        69240                       # number of ReadSharedReq accesses(hits+misses)
system.l2.ReadSharedReq_accesses::total         69240                       # number of ReadSharedReq accesses(hits+misses)
system.l2.ReadSharedReq_miss_rate::.cpu.data     0.007597                       # miss rate for ReadSharedReq accesses
system.l2.ReadSharedReq_miss_rate::total     0.007597                       # miss rate for ReadSharedReq accesses
system.l2.ReadSharedReq_avg_miss_latency::.cpu.data 84984.169202                       # average ReadSharedReq miss latency
system.l2.ReadSharedReq_avg_miss_latency::total 84984.169202                       # average ReadSharedReq miss latency
system.l2.ReadSharedReq_mshr_hits::.cpu.data            6                       # number of ReadSharedReq MSHR hits
system.l2.ReadSharedReq_mshr_hits::total            6                       # number of ReadSharedReq MSHR hits
system.l2.ReadSharedReq_mshr_misses::.cpu.data          520                       # number of ReadSharedReq MSHR misses
system.l2.ReadSharedReq_mshr_misses::total          520                       # number of ReadSharedReq MSHR misses
system.l2.ReadSharedReq_mshr_miss_latency::.cpu.data     37206040                       # number of ReadSharedReq MSHR miss cycles
system.l2.ReadSharedReq_mshr_miss_latency::total     37206040                       # number of ReadSharedReq MSHR miss cycles
system.l2.ReadSharedReq_mshr_miss_rate::.cpu.data     0.007510                       # mshr miss rate for ReadSharedReq accesses
system.l2.ReadSharedReq_mshr_miss_rate::total     0.007510                       # mshr miss rate for ReadSharedReq accesses
system.l2.ReadSharedReq_avg_mshr_miss_latency::.cpu.data 71550.076923                       # average ReadSharedReq mshr miss latency
system.l2.ReadSharedReq_avg_mshr_miss_latency::total 71550.076923                       # average ReadSharedReq mshr miss latency
system.l2.power_state.pwrStateResidencyTicks::UNDEFINED  89133717253                       # Cumulative time (in ticks) in various power states
system.l2.tags.tagsinuse                  5275.968057                       # Cycle average of tags in use
system.l2.tags.total_refs                     1387461                       # Total number of references to valid blocks.
system.l2.tags.sampled_refs                      5479                       # Sample count of references to valid blocks.
system.l2.tags.avg_refs                    253.232524                       # Average number of references to valid blocks.
system.l2.tags.warmup_cycle                     80000                       # Cycle when the warmup percentage was hit.
system.l2.tags.occ_blocks::.cpu.inst      1287.024322                       # Average occupied blocks per requestor
system.l2.tags.occ_blocks::.cpu.data      3988.943734                       # Average occupied blocks per requestor
system.l2.tags.occ_percent::.cpu.inst        0.039277                       # Average percentage of cache occupancy
system.l2.tags.occ_percent::.cpu.data        0.121733                       # Average percentage of cache occupancy
system.l2.tags.occ_percent::total            0.161010                       # Average percentage of cache occupancy
system.l2.tags.occ_task_id_blocks::1024          5479                       # Occupied blocks per task id
system.l2.tags.age_task_id_blocks_1024::4         5479                       # Occupied blocks per task id
system.l2.tags.occ_task_id_percent::1024     0.167206                       # Percentage of cache occupancy per task id
system.l2.tags.tag_accesses                   2780415                       # Number of tag accesses
system.l2.tags.data_accesses                  2780415                       # Number of data accesses
system.l2.tags.power_state.pwrStateResidencyTicks::UNDEFINED  89133717253                       # Cumulative time (in ticks) in various power states
system.mem_ctrls.avgPriority_.cpu.inst::samples      1293.00                       # Average QoS priority value for accepted requests
system.mem_ctrls.avgPriority_.cpu.data::samples      4186.00                       # Average QoS priority value for accepted requests
system.mem_ctrls.priorityMinLatency      0.000000018750                       # per QoS priority minimum request to response latency (s)
system.mem_ctrls.priorityMaxLatency      0.000000579714                       # per QoS priority maximum request to response latency (s)
system.mem_ctrls.numReadWriteTurnArounds            0                       # Number of turnarounds from READ to WRITE
system.mem_ctrls.numWriteReadTurnArounds            0                       # Number of turnarounds from WRITE to READ
system.mem_ctrls.numStayReadState               33841                       # Number of times bus staying in READ state
system.mem_ctrls.numStayWriteState                  0                       # Number of times bus staying in WRITE state
system.mem_ctrls.readReqs                        5479                       # Number of read requests accepted
system.mem_ctrls.writeReqs                          0                       # Number of write requests accepted
system.mem_ctrls.readBursts                      5479                       # Number of controller read bursts, including those serviced by the write queue
system.mem_ctrls.writeBursts                        0                       # Number of controller write bursts, including those merged in the write queue
system.mem_ctrls.servicedByWrQ                      0                       # Number of controller read bursts serviced by the write queue
system.mem_ctrls.mergedWrBursts                     0                       # Number of controller write bursts merged with an existing one
system.mem_ctrls.neitherReadNorWriteReqs            0                       # Number of requests that are neither read nor write
system.mem_ctrls.avgRdQLen                       1.00                       # Average read queue length when enqueuing
system.mem_ctrls.avgWrQLen                       0.00                       # Average write queue length when enqueuing
system.mem_ctrls.numRdRetry                         0                       # Number of times read queue was full causing retry
system.mem_ctrls.numWrRetry                         0                       # Number of times write queue was full causing retry
system.mem_ctrls.readPktSize::0                     0                       # Read request sizes (log2)
system.mem_ctrls.readPktSize::1                     0                       # Read request sizes (log2)
system.mem_ctrls.readPktSize::2                     0                       # Read request sizes (log2)
system.mem_ctrls.readPktSize::3                     0                       # Read request sizes (log2)
system.mem_ctrls.readPktSize::4                     0                       # Read request sizes (log2)
system.mem_ctrls.readPktSize::5                     0                       # Read request sizes (log2)
system.mem_ctrls.readPktSize::6                  5479                       # Read request sizes (log2)
system.mem_ctrls.writePktSize::0                    0                       # Write request sizes (log2)
system.mem_ctrls.writePktSize::1                    0                       # Write request sizes (log2)
system.mem_ctrls.writePktSize::2                    0                       # Write request sizes (log2)
system.mem_ctrls.writePktSize::3                    0                       # Write request sizes (log2)
[...]
system.mem_ctrls.dram.bw_read::.cpu.data      3005642                       # Total read bandwidth from this memory (bytes/s)
system.mem_ctrls.dram.bw_read::total          3934044                       # Total read bandwidth from this memory (bytes/s)
system.mem_ctrls.dram.bw_inst_read::.cpu.inst       928403                       # Instruction read bandwidth from this memory (bytes/s)
system.mem_ctrls.dram.bw_inst_read::total       928403                       # Instruction read bandwidth from this memory (bytes/s)
system.mem_ctrls.dram.bw_total::.cpu.inst       928403                       # Total bandwidth to/from this memory (bytes/s)
system.mem_ctrls.dram.bw_total::.cpu.data      3005642                       # Total bandwidth to/from this memory (bytes/s)
system.mem_ctrls.dram.bw_total::total         3934044                       # Total bandwidth to/from this memory (bytes/s)
system.mem_ctrls.dram.readBursts                 5479                       # Number of DRAM read bursts
system.mem_ctrls.dram.writeBursts                   0                       # Number of DRAM write bursts
system.mem_ctrls.dram.perBankRdBursts::0          252                       # Per bank write bursts
system.mem_ctrls.dram.perBankRdBursts::1          272                       # Per bank write bursts
system.mem_ctrls.dram.perBankRdBursts::2          244                       # Per bank write bursts
system.mem_ctrls.dram.perBankRdBursts::3          403                       # Per bank write bursts
system.mem_ctrls.dram.perBankRdBursts::4          417                       # Per bank write bursts
system.mem_ctrls.dram.perBankRdBursts::5          373                       # Per bank write bursts
system.mem_ctrls.dram.perBankRdBursts::6          377                       # Per bank write bursts
system.mem_ctrls.dram.perBankRdBursts::7          399                       # Per bank write bursts
system.mem_ctrls.dram.perBankRdBursts::8          358                       # Per bank write bursts
system.mem_ctrls.dram.perBankRdBursts::9          290                       # Per bank write bursts
system.mem_ctrls.dram.perBankRdBursts::10          425                       # Per bank write bursts
system.mem_ctrls.dram.perBankRdBursts::11          287                       # Per bank write bursts
system.mem_ctrls.dram.perBankRdBursts::12          311                       # Per bank write bursts
system.mem_ctrls.dram.perBankRdBursts::13          339                       # Per bank write bursts
system.mem_ctrls.dram.perBankRdBursts::14          399                       # Per bank write bursts
system.mem_ctrls.dram.perBankRdBursts::15          333                       # Per bank write bursts
system.mem_ctrls.dram.perBankWrBursts::0            0                       # Per bank write bursts
system.mem_ctrls.dram.perBankWrBursts::1            0                       # Per bank write bursts
system.mem_ctrls.dram.perBankWrBursts::2            0                       # Per bank write bursts
system.mem_ctrls.dram.perBankWrBursts::3            0                       # Per bank write bursts
system.mem_ctrls.dram.perBankWrBursts::4            0                       # Per bank write bursts
system.mem_ctrls.dram.perBankWrBursts::5            0                       # Per bank write bursts
system.mem_ctrls.dram.perBankWrBursts::6            0                       # Per bank write bursts
system.mem_ctrls.dram.perBankWrBursts::7            0                       # Per bank write bursts
system.mem_ctrls.dram.perBankWrBursts::8            0                       # Per bank write bursts
system.mem_ctrls.dram.perBankWrBursts::9            0                       # Per bank write bursts
system.mem_ctrls.dram.perBankWrBursts::10            0                       # Per bank write bursts
system.mem_ctrls.dram.perBankWrBursts::11            0                       # Per bank write bursts
system.mem_ctrls.dram.perBankWrBursts::12            0                       # Per bank write bursts
system.mem_ctrls.dram.perBankWrBursts::13            0                       # Per bank write bursts
system.mem_ctrls.dram.perBankWrBursts::14            0                       # Per bank write bursts
system.mem_ctrls.dram.perBankWrBursts::15            0                       # Per bank write bursts
system.mem_ctrls.dram.totQLat                38514023                       # Total ticks spent queuing
system.mem_ctrls.dram.totBusLat              27395000                       # Total ticks spent in databus transfers
system.mem_ctrls.dram.totMemAccLat          141245273                       # Total ticks spent from burst creation until serviced by the DRAM
system.mem_ctrls.dram.avgQLat                 7029.39                       # Average queueing delay per DRAM burst
system.mem_ctrls.dram.avgBusLat               5000.00                       # Average bus latency per DRAM burst
system.mem_ctrls.dram.avgMemAccLat           25779.39                       # Average memory access latency per DRAM burst
system.mem_ctrls.dram.readRowHits                4219                       # Number of row buffer hits during reads
system.mem_ctrls.dram.writeRowHits                  0                       # Number of row buffer hits during writes
system.mem_ctrls.dram.readRowHitRate            77.00                       # Row buffer hit rate for reads
system.mem_ctrls.dram.writeRowHitRate             nan                       # Row buffer hit rate for writes
system.mem_ctrls.dram.bytesPerActivate::samples         1260                       # Bytes accessed per row activation
system.mem_ctrls.dram.bytesPerActivate::mean   278.298413                       # Bytes accessed per row activation
system.mem_ctrls.dram.bytesPerActivate::gmean   182.180580                       # Bytes accessed per row activation
system.mem_ctrls.dram.bytesPerActivate::stdev   286.307887                       # Bytes accessed per row activation
system.mem_ctrls.dram.bytesPerActivate::0-127          373     29.60%     29.60% # Bytes accessed per row activation
system.mem_ctrls.dram.bytesPerActivate::128-255          382     30.32%     59.92% # Bytes accessed per row activation
system.mem_ctrls.dram.bytesPerActivate::256-383          248     19.68%     79.60% # Bytes accessed per row activation
system.mem_ctrls.dram.bytesPerActivate::384-511           69      5.48%     85.08% # Bytes accessed per row activation
system.mem_ctrls.dram.bytesPerActivate::512-639           22      1.75%     86.83% # Bytes accessed per row activation
system.mem_ctrls.dram.bytesPerActivate::640-767           21      1.67%     88.49% # Bytes accessed per row activation
system.mem_ctrls.dram.bytesPerActivate::768-895           18      1.43%     89.92% # Bytes accessed per row activation
system.mem_ctrls.dram.bytesPerActivate::896-1023           11      0.87%     90.79% # Bytes accessed per row activation
system.mem_ctrls.dram.bytesPerActivate::1024-1151          116      9.21%    100.00% # Bytes accessed per row activation
system.mem_ctrls.dram.bytesPerActivate::total         1260                       # Bytes accessed per row activation
system.mem_ctrls.dram.bytesRead                350656                       # Total number of bytes read from DRAM
system.mem_ctrls.dram.bytesWritten                  0                       # Total number of bytes written to DRAM
system.mem_ctrls.dram.avgRdBW                3.934044                       # Average DRAM read bandwidth in MiBytes/s
system.mem_ctrls.dram.avgWrBW                       0                       # Average DRAM write bandwidth in MiBytes/s
system.mem_ctrls.dram.peakBW                 12800.00                       # Theoretical peak bandwidth in MiByte/s
system.mem_ctrls.dram.busUtil                    0.03                       # Data bus utilization in percentage
system.mem_ctrls.dram.busUtilRead                0.03                       # Data bus utilization in percentage for reads
system.mem_ctrls.dram.busUtilWrite               0.00                       # Data bus utilization in percentage for writes
system.mem_ctrls.dram.pageHitRate               77.00                       # Row buffer hit rate, read and write combined
system.mem_ctrls.dram.power_state.pwrStateResidencyTicks::UNDEFINED  89133717253                       # Cumulative time (in ticks) in various power states
system.mem_ctrls.dram.rank0.actEnergy         4519620                       # Energy for activate commands per rank (pJ)
system.mem_ctrls.dram.rank0.preEnergy         2402235                       # Energy for precharge commands per rank (pJ)
system.mem_ctrls.dram.rank0.readEnergy       19542180                       # Energy for read commands per rank (pJ)
system.mem_ctrls.dram.rank0.writeEnergy             0                       # Energy for write commands per rank (pJ)
system.mem_ctrls.dram.rank0.refreshEnergy 7035784080.000001                       # Energy for refresh commands per rank (pJ)
system.mem_ctrls.dram.rank0.actBackEnergy   2078358510                       # Energy for active background per rank (pJ)
system.mem_ctrls.dram.rank0.preBackEnergy  32477150880                       # Energy for precharge background per rank (pJ)
system.mem_ctrls.dram.rank0.actPowerDownEnergy            0                       # Energy for active power-down per rank (pJ)
system.mem_ctrls.dram.rank0.prePowerDownEnergy            0                       # Energy for precharge power-down per rank (pJ)
system.mem_ctrls.dram.rank0.selfRefreshEnergy            0                       # Energy for self refresh per rank (pJ)
system.mem_ctrls.dram.rank0.totalEnergy   41617757505                       # Total energy per rank (pJ)
system.mem_ctrls.dram.rank0.averagePower   466.913742                       # Core power per rank (mW)
system.mem_ctrls.dram.rank0.totalIdleTime            0                       # Total Idle time Per DRAM Rank
system.mem_ctrls.dram.rank0.pwrStateTime::IDLE  84413794466                       # Time in different power states
system.mem_ctrls.dram.rank0.pwrStateTime::REF   2976220000                       # Time in different power states
system.mem_ctrls.dram.rank0.pwrStateTime::SREF            0                       # Time in different power states
system.mem_ctrls.dram.rank0.pwrStateTime::PRE_PDN            0                       # Time in different power states
system.mem_ctrls.dram.rank0.pwrStateTime::ACT   1743702787                       # Time in different power states
system.mem_ctrls.dram.rank0.pwrStateTime::ACT_PDN            0                       # Time in different power states
system.mem_ctrls.dram.rank1.actEnergy         4476780                       # Energy for activate commands per rank (pJ)
system.mem_ctrls.dram.rank1.preEnergy         2379465                       # Energy for precharge commands per rank (pJ)
system.mem_ctrls.dram.rank1.readEnergy       19577880                       # Energy for read commands per rank (pJ)
system.mem_ctrls.dram.rank1.writeEnergy             0                       # Energy for write commands per rank (pJ)
system.mem_ctrls.dram.rank1.refreshEnergy 7035784080.000001                       # Energy for refresh commands per rank (pJ)
system.mem_ctrls.dram.rank1.actBackEnergy   2007120480                       # Energy for active background per rank (pJ)
system.mem_ctrls.dram.rank1.preBackEnergy  32537140800                       # Energy for precharge background per rank (pJ)
system.mem_ctrls.dram.rank1.actPowerDownEnergy            0                       # Energy for active power-down per rank (pJ)
system.mem_ctrls.dram.rank1.prePowerDownEnergy            0                       # Energy for precharge power-down per rank (pJ)
system.mem_ctrls.dram.rank1.selfRefreshEnergy            0                       # Energy for self refresh per rank (pJ)
system.mem_ctrls.dram.rank1.totalEnergy   41606479485                       # Total energy per rank (pJ)
system.mem_ctrls.dram.rank1.averagePower   466.787213                       # Core power per rank (mW)
system.mem_ctrls.dram.rank1.totalIdleTime            0                       # Total Idle time Per DRAM Rank
system.mem_ctrls.dram.rank1.pwrStateTime::IDLE  84569843119                       # Time in different power states
system.mem_ctrls.dram.rank1.pwrStateTime::REF   2976220000                       # Time in different power states
system.mem_ctrls.dram.rank1.pwrStateTime::SREF            0                       # Time in different power states
system.mem_ctrls.dram.rank1.pwrStateTime::PRE_PDN            0                       # Time in different power states
system.mem_ctrls.dram.rank1.pwrStateTime::ACT   1587654134                       # Time in different power states
system.mem_ctrls.dram.rank1.pwrStateTime::ACT_PDN            0                       # Time in different power states
system.mem_ctrls.power_state.pwrStateResidencyTicks::UNDEFINED  89133717253                       # Cumulative time (in ticks) in various power states
system.membus.trans_dist::ReadResp               1813                       # Transaction distribution
system.membus.trans_dist::ReadExReq              3666                       # Transaction distribution
system.membus.trans_dist::ReadExResp             3666                       # Transaction distribution
system.membus.trans_dist::ReadSharedReq          1813                       # Transaction distribution
system.membus.pkt_count_system.l2.mem_side_port::system.mem_ctrls.port        10958                       # Packet count per connected requestor and responder (bytes)
system.membus.pkt_count::total                  10958                       # Packet count per connected requestor and responder (bytes)
system.membus.pkt_size_system.l2.mem_side_port::system.mem_ctrls.port       350656                       # Cumulative packet size per connected requestor and responder (bytes)
system.membus.pkt_size::total                  350656                       # Cumulative packet size per connected requestor and responder (bytes)
system.membus.snoops                                0                       # Total snoops (count)
system.membus.snoopTraffic                          0                       # Total snoop traffic (bytes)
system.membus.snoop_fanout::samples              5479                       # Request fanout histogram
system.membus.snoop_fanout::mean                    0                       # Request fanout histogram
system.membus.snoop_fanout::stdev                   0                       # Request fanout histogram
system.membus.snoop_fanout::underflows              0      0.00%      0.00% # Request fanout histogram
system.membus.snoop_fanout::0                    5479    100.00%    100.00% # Request fanout histogram
system.membus.snoop_fanout::1                       0      0.00%    100.00% # Request fanout histogram
system.membus.snoop_fanout::overflows               0      0.00%    100.00% # Request fanout histogram
system.membus.snoop_fanout::min_value               0                       # Request fanout histogram
system.membus.snoop_fanout::max_value               0                       # Request fanout histogram
system.membus.snoop_fanout::total                5479                       # Request fanout histogram
system.membus.power_state.pwrStateResidencyTicks::UNDEFINED  89133717253                       # Cumulative time (in ticks) in various power states
system.membus.reqLayer0.occupancy             8144956                       # Layer occupancy (ticks)
system.membus.reqLayer0.utilization               0.0                       # Layer utilization (%)
system.membus.respLayer1.occupancy           29107987                       # Layer occupancy (ticks)
system.membus.respLayer1.utilization              0.0                       # Layer utilization (%)
system.tol2bus.trans_dist::ReadResp            649371                       # Transaction distribution
system.tol2bus.trans_dist::WritebackDirty       124587                       # Transaction distribution
system.tol2bus.trans_dist::WritebackClean       579643                       # Transaction distribution
system.tol2bus.trans_dist::CleanEvict            2361                       # Transaction distribution
system.tol2bus.trans_dist::ReadExReq            58732                       # Transaction distribution
system.tol2bus.trans_dist::ReadExResp           58732                       # Transaction distribution
system.tol2bus.trans_dist::ReadCleanReq        580131                       # Transaction distribution
system.tol2bus.trans_dist::ReadSharedReq        69240                       # Transaction distribution
system.tol2bus.pkt_count_system.cpu.icache.mem_side_port::system.l2.cpu_side_port      1739905                       # Packet count per connected requestor and responder (bytes)
system.tol2bus.pkt_count_system.cpu.dcache.mem_side_port::system.l2.cpu_side_port       382892                       # Packet count per connected requestor and responder (bytes)
system.tol2bus.pkt_count::total               2122797                       # Packet count per connected requestor and responder (bytes)
system.tol2bus.pkt_size_system.cpu.icache.mem_side_port::system.l2.cpu_side_port     74225536                       # Cumulative packet size per connected requestor and responder (bytes)
system.tol2bus.pkt_size_system.cpu.dcache.mem_side_port::system.l2.cpu_side_port     16163776                       # Cumulative packet size per connected requestor and responder (bytes)
system.tol2bus.pkt_size::total               90389312                       # Cumulative packet size per connected requestor and responder (bytes)
system.tol2bus.snoops                               0                       # Total snoops (count)
system.tol2bus.snoopTraffic                         0                       # Total snoop traffic (bytes)
system.tol2bus.snoop_fanout::samples           708103                       # Request fanout histogram
system.tol2bus.snoop_fanout::mean            0.038456                       # Request fanout histogram
system.tol2bus.snoop_fanout::stdev           0.192295                       # Request fanout histogram
system.tol2bus.snoop_fanout::underflows             0      0.00%      0.00% # Request fanout histogram
system.tol2bus.snoop_fanout::0                 680872     96.15%     96.15% # Request fanout histogram
system.tol2bus.snoop_fanout::1                  27231      3.85%    100.00% # Request fanout histogram
system.tol2bus.snoop_fanout::2                      0      0.00%    100.00% # Request fanout histogram
system.tol2bus.snoop_fanout::overflows              0      0.00%    100.00% # Request fanout histogram
system.tol2bus.snoop_fanout::min_value              0                       # Request fanout histogram
system.tol2bus.snoop_fanout::max_value              1                       # Request fanout histogram
system.tol2bus.snoop_fanout::total             708103                       # Request fanout histogram
system.tol2bus.power_state.pwrStateResidencyTicks::UNDEFINED  89133717253                       # Cumulative time (in ticks) in various power states
system.tol2bus.reqLayer0.occupancy         1883043718                       # Layer occupancy (ticks)
system.tol2bus.reqLayer0.utilization              2.1                       # Layer utilization (%)
system.tol2bus.respLayer0.occupancy        1160843463                       # Layer occupancy (ticks)
system.tol2bus.respLayer0.utilization             1.3                       # Layer utilization (%)
system.tol2bus.respLayer1.occupancy         256076634                       # Layer occupancy (ticks)
system.tol2bus.respLayer1.utilization             0.3                       # Layer utilization (%)
system.voltage_domain.voltage                       1                       # Voltage in Volts

---------- End Simulation Statistics   ----------
