
---------- Begin Simulation Statistics ----------
final_tick                                79104743939                       # Number of ticks from beginning of simulation (restored from checkpoints and never reset)
host_inst_rate                                 325239                       # Simulator instruction rate (inst/s)
host_mem_usage                                 678656                       # Number of bytes of host memory used
host_op_rate                                   328826                       # Simulator op (including micro ops) rate (op/s)
host_seconds                                   307.47                       # Real time elapsed on the host
host_tick_rate                              257279679                       # Simulator tick rate (ticks/s)
sim_freq                                 1000000000000                       # Frequency of simulated ticks
sim_insts                                   100000000                       # Number of instructions simulated
sim_ops                                     101102730                       # Number of ops (including micro ops) simulated
sim_seconds                                  0.079105                       # Number of seconds simulated
sim_ticks                                 79104743939                       # Number of ticks simulated
system.cpu.committedInsts                   100000000                       # Number of instructions committed
system.cpu.committedOps                     101102730                       # Number of ops (including micro ops) committed
system.cpu.cpi                               1.185978                       # CPI: cycles per instruction
system.cpu.discardedOps                        970931                       # Number of ops (including micro ops) which were discarded before commit
system.cpu.idleCycles                         2696036                       # Total number of cycles that the object has spent stopped
system.cpu.ipc                               0.843186                       # IPC: instructions per cycle
system.cpu.numCycles                        118597817                       # number of cpu cycles simulated
system.cpu.numFetchSuspends                         0                       # Number of times Execute suspended instruction fetching
system.cpu.numWorkItemsCompleted                    0                       # number of work items this cpu completed
system.cpu.numWorkItemsStarted                      0                       # number of work items this cpu started
system.cpu.op_class_0::No_OpClass                   0      0.00%      0.00% # Class of committed instruction
system.cpu.op_class_0::IntAlu                55115624     54.51%     54.51% # Class of committed instruction
system.cpu.op_class_0::IntMult                 167845      0.17%     54.68% # Class of committed instruction
system.cpu.op_class_0::IntDiv                       0      0.00%     54.68% # Class of committed instruction
system.cpu.op_class_0::FloatAdd                     0      0.00%     54.68% # Class of committed instruction
system.cpu.op_class_0::FloatCmp                     0      0.00%     54.68% # Class of committed instruction
system.cpu.op_class_0::FloatCvt                     0      0.00%     54.68% # Class of committed instruction
system.cpu.op_class_0::FloatMult                    0      0.00%     54.68% # Class of committed instruction
system.cpu.op_class_0::FloatMultAcc                 0      0.00%     54.68% # Class of committed instruction
system.cpu.op_class_0::FloatDiv                     0      0.00%     54.68% # Class of committed instruction
system.cpu.op_class_0::FloatMisc                    0      0.00%     54.68% # Class of committed instruction
system.cpu.op_class_0::FloatSqrt                    0      0.00%     54.68% # Class of committed instruction
system.cpu.op_class_0::SimdAdd                    380      0.00%     54.68% # Class of committed instruction
system.cpu.op_class_0::SimdAddAcc                   0      0.00%     54.68% # Class of committed instruction
system.cpu.op_class_0::SimdAlu                    470      0.00%     54.68% # Class of committed instruction
system.cpu.op_class_0::SimdCmp                    382      0.00%     54.68% # Class of committed instruction
system.cpu.op_class_0::SimdCvt                      0      0.00%     54.68% # Class of committed instruction
system.cpu.op_class_0::SimdMisc                    53      0.00%     54.68% # Class of committed instruction
system.cpu.op_class_0::SimdMult                     0      0.00%     54.68% # Class of committed instruction
system.cpu.op_class_0::SimdMultAcc                  0      0.00%     54.68% # Class of committed instruction
system.cpu.op_class_0::SimdShift                    0      0.00%     54.68% # Class of committed instruction
system.cpu.op_class_0::SimdShiftAcc                 0      0.00%     54.68% # Class of committed instruction
system.cpu.op_class_0::SimdDiv                      0      0.00%     54.68% # Class of committed instruction
system.cpu.op_class_0::SimdSqrt                     0      0.00%     54.68% # Class of committed instruction
system.cpu.op_class_0::SimdFloatAdd            267609      0.26%     54.95% # Class of committed instruction
system.cpu.op_class_0::SimdFloatAlu                 0      0.00%     54.95% # Class of committed instruction
system.cpu.op_class_0::SimdFloatCmp            259630      0.26%     55.20% # Class of committed instruction
system.cpu.op_class_0::SimdFloatCvt            161456      0.16%     55.36% # Class of committed instruction
system.cpu.op_class_0::SimdFloatDiv             54308      0.05%     55.42% # Class of committed instruction
system.cpu.op_class_0::SimdFloatMisc           483618      0.48%     55.90% # Class of committed instruction
system.cpu.op_class_0::SimdFloatMult            33524      0.03%     55.93% # Class of committed instruction
system.cpu.op_class_0::SimdFloatMultAcc         11115      0.01%     55.94% # Class of committed instruction
system.cpu.op_class_0::SimdFloatSqrt                0      0.00%     55.94% # Class of committed instruction
system.cpu.op_class_0::SimdReduceAdd                0      0.00%     55.94% # Class of committed instruction
system.cpu.op_class_0::SimdReduceAlu                0      0.00%     55.94% # Class of committed instruction
system.cpu.op_class_0::SimdReduceCmp                0      0.00%     55.94% # Class of committed instruction
system.cpu.op_class_0::SimdFloatReduceAdd            0      0.00%     55.94% # Class of committed instruction
system.cpu.op_class_0::SimdFloatReduceCmp            0      0.00%     55.94% # Class of committed instruction
system.cpu.op_class_0::SimdAes                      0      0.00%     55.94% # Class of committed instruction
system.cpu.op_class_0::SimdAesMix                   0      0.00%     55.94% # Class of committed instruction
system.cpu.op_class_0::SimdSha1Hash                 0      0.00%     55.94% # Class of committed instruction
system.cpu.op_class_0::SimdSha1Hash2                0      0.00%     55.94% # Class of committed instruction
system.cpu.op_class_0::SimdSha256Hash               0      0.00%     55.94% # Class of committed instruction
system.cpu.op_class_0::SimdSha256Hash2              0      0.00%     55.94% # Class of committed instruction
system.cpu.op_class_0::SimdShaSigma2                0      0.00%     55.94% # Class of committed instruction
system.cpu.op_class_0::SimdShaSigma3                0      0.00%     55.94% # Class of committed instruction
system.cpu.op_class_0::SimdPredAlu                  0      0.00%     55.94% # Class of committed instruction
system.cpu.op_class_0::MemRead               38167611     37.75%     93.69% # Class of committed instruction
system.cpu.op_class_0::MemWrite               6379105      6.31%    100.00% # Class of committed instruction
system.cpu.op_class_0::FloatMemRead                 0      0.00%    100.00% # Class of committed instruction
system.cpu.op_class_0::FloatMemWrite                0      0.00%    100.00% # Class of committed instruction
system.cpu.op_class_0::IprAccess                    0      0.00%    100.00% # Class of committed instruction
system.cpu.op_class_0::InstPrefetch                 0      0.00%    100.00% # Class of committed instruction
system.cpu.op_class_0::total                101102730                       # Class of committed instruction
system.cpu.tickCycles                       115901781                       # Number of cycles that the object actually ticked
system.cpu.workload.numSyscalls                    32                       # Number of system calls
system.membus.snoop_filter.hit_multi_requests            0                       # Number of requests hitting in the snoop filter with multiple (>1) holders of the requested data.
system.membus.snoop_filter.hit_multi_snoops            0                       # Number of snoops hitting in the snoop filter with multiple (>1) holders of the requested data.
system.membus.snoop_filter.hit_single_requests            0                       # Number of requests hitting in the snoop filter with a single holder of the requested data.
system.membus.snoop_filter.hit_single_snoops            0                       # Number of snoops hitting in the snoop filter with a single holder of the requested data.
system.membus.snoop_filter.tot_requests          5483                       # Total number of requests made to the snoop filter.
system.membus.snoop_filter.tot_snoops               0                       # Total number of snoops made to the snoop filter.
system.tol2bus.snoop_filter.hit_multi_requests          928                       # Number of requests hitting in the snoop filter with multiple (>1) holders of the requested data.
system.tol2bus.snoop_filter.hit_multi_snoops            0                       # Number of snoops hitting in the snoop filter with multiple (>1) holders of the requested data.
system.tol2bus.snoop_filter.hit_single_requests        65191                       # Number of requests hitting in the snoop filter with a single holder of the requested data.
system.tol2bus.snoop_filter.hit_single_snoops            0                       # Number of snoops hitting in the snoop filter with a single holder of the requested data.
system.tol2bus.snoop_filter.tot_requests       131890                       # Total number of requests made to the snoop filter.
system.tol2bus.snoop_filter.tot_snoops              0                       # Total number of snoops made to the snoop filter.
system.clk_domain.clock                          1000                       # Clock period in ticks
system.cpu.branchPred.lookups                 6501947                       # Number of BP lookups
system.cpu.branchPred.condPredicted           5093693                       # Number of conditional branches predicted
system.cpu.branchPred.condIncorrect            349141                       # Number of conditional branches incorrect
system.cpu.branchPred.BTBLookups              4083833                       # Number of BTB lookups
system.cpu.branchPred.BTBHits                 4076533                       # Number of BTB hits
system.cpu.branchPred.BTBHitPct             99.821246                       # BTB Hit Percentage
system.cpu.branchPred.RASUsed                  312611                       # Number of times the RAS was used to get a target.
system.cpu.branchPred.RASIncorrect                  4                       # Number of incorrect RAS predictions.
system.cpu.branchPred.indirectLookups          675671                       # Number of indirect predictor lookups.
system.cpu.branchPred.indirectHits             102890                       # Number of indirect target hits.
system.cpu.branchPred.indirectMisses           572781                       # Number of indirect misses.
system.cpu.branchPred.indirectMispredicted        37439                       # Number of mispredicted indirect branches.
system.cpu.dcache.demand_hits::.cpu.data     43839038                       # number of demand (read+write) hits
system.cpu.dcache.demand_hits::total         43839038                       # number of demand (read+write) hits
system.cpu.dcache.overall_hits::.cpu.data     43847610                       # number of overall hits
system.cpu.dcache.overall_hits::total        43847610                       # number of overall hits
system.cpu.dcache.demand_misses::.cpu.data        69446                       # number of demand (read+write) misses
system.cpu.dcache.demand_misses::total          69446                       # number of demand (read+write) misses
system.cpu.dcache.overall_misses::.cpu.data        69590                       # number of overall misses
system.cpu.dcache.overall_misses::total         69590                       # number of overall misses
system.cpu.dcache.demand_miss_latency::.cpu.data   1645497671                       # number of demand (read+write) miss cycles
system.cpu.dcache.demand_miss_latency::total   1645497671                       # number of demand (read+write) miss cycles
system.cpu.dcache.overall_miss_latency::.cpu.data   1645497671                       # number of overall miss cycles
system.cpu.dcache.overall_miss_latency::total   1645497671                       # number of overall miss cycles
system.cpu.dcache.demand_accesses::.cpu.data     43908484                       # number of demand (read+write) accesses
system.cpu.dcache.demand_accesses::total     43908484                       # number of demand (read+write) accesses
system.cpu.dcache.overall_accesses::.cpu.data     43917200                       # number of overall (read+write) accesses
system.cpu.dcache.overall_accesses::total     43917200                       # number of overall (read+write) accesses
system.cpu.dcache.demand_miss_rate::.cpu.data     0.001582                       # miss rate for demand accesses
system.cpu.dcache.demand_miss_rate::total     0.001582                       # miss rate for demand accesses
system.cpu.dcache.overall_miss_rate::.cpu.data     0.001585                       # miss rate for overall accesses
system.cpu.dcache.overall_miss_rate::total     0.001585                       # miss rate for overall accesses
system.cpu.dcache.demand_avg_miss_latency::.cpu.data 23694.635703                       # average overall miss latency
system.cpu.dcache.demand_avg_miss_latency::total 23694.635703                       # average overall miss latency
system.cpu.dcache.overall_avg_miss_latency::.cpu.data 23645.605274                       # average overall miss latency
system.cpu.dcache.overall_avg_miss_latency::total 23645.605274                       # average overall miss latency
system.cpu.dcache.blocked_cycles::no_mshrs           87                       # number of cycles access was blocked
system.cpu.dcache.blocked_cycles::no_targets            0                       # number of cycles access was blocked
system.cpu.dcache.blocked::no_mshrs                 1                       # number of cycles access was blocked
system.cpu.dcache.blocked::no_targets               0                       # number of cycles access was blocked
system.cpu.dcache.avg_blocked_cycles::no_mshrs           87                       # average number of cycles each access was blocked
system.cpu.dcache.avg_blocked_cycles::no_targets          nan                       # average number of cycles each access was blocked
system.cpu.dcache.writebacks::.writebacks        61606                       # number of writebacks
system.cpu.dcache.writebacks::total             61606                       # number of writebacks
system.cpu.dcache.demand_mshr_hits::.cpu.data         5125                       # number of demand (read+write) MSHR hits
system.cpu.dcache.demand_mshr_hits::total         5125                       # number of demand (read+write) MSHR hits
system.cpu.dcache.overall_mshr_hits::.cpu.data         5125                       # number of overall MSHR hits
system.cpu.dcache.overall_mshr_hits::total         5125                       # number of overall MSHR hits
system.cpu.dcache.demand_mshr_misses::.cpu.data        64321                       # number of demand (read+write) MSHR misses
system.cpu.dcache.demand_mshr_misses::total        64321                       # number of demand (read+write) MSHR misses
system.cpu.dcache.overall_mshr_misses::.cpu.data        64453                       # number of overall MSHR misses
system.cpu.dcache.overall_mshr_misses::total        64453                       # number of overall MSHR misses
system.cpu.dcache.demand_mshr_miss_latency::.cpu.data   1321496418                       # number of demand (read+write) MSHR miss cycles
system.cpu.dcache.demand_mshr_miss_latency::total   1321496418                       # number of demand (read+write) MSHR miss cycles
system.cpu.dcache.overall_mshr_miss_latency::.cpu.data   1330017343                       # number of overall MSHR miss cycles
system.cpu.dcache.overall_mshr_miss_latency::total   1330017343                       # number of overall MSHR miss cycles
system.cpu.dcache.demand_mshr_miss_rate::.cpu.data     0.001465                       # mshr miss rate for demand accesses
system.cpu.dcache.demand_mshr_miss_rate::total     0.001465                       # mshr miss rate for demand accesses
system.cpu.dcache.overall_mshr_miss_rate::.cpu.data     0.001468                       # mshr miss rate for overall accesses
system.cpu.dcache.overall_mshr_miss_rate::total     0.001468                       # mshr miss rate for overall accesses
system.cpu.dcache.demand_avg_mshr_miss_latency::.cpu.data 20545.333841                       # average overall mshr miss latency
system.cpu.dcache.demand_avg_mshr_miss_latency::total 20545.333841                       # average overall mshr miss latency
system.cpu.dcache.overall_avg_mshr_miss_latency::.cpu.data 20635.460615                       # average overall mshr miss latency
system.cpu.dcache.overall_avg_mshr_miss_latency::total 20635.460615                       # average overall mshr miss latency
system.cpu.dcache.replacements                  63430                       # number of replacements
system.cpu.dcache.ReadReq_hits::.cpu.data     37575393                       # number of ReadReq hits
system.cpu.dcache.ReadReq_hits::total        37575393                       # number of ReadReq hits
system.cpu.dcache.ReadReq_misses::.cpu.data        12243                       # number of ReadReq misses
system.cpu.dcache.ReadReq_misses::total         12243                       # number of ReadReq misses
system.cpu.dcache.ReadReq_miss_latency::.cpu.data    248658934                       # number of ReadReq miss cycles
system.cpu.dcache.ReadReq_miss_latency::total    248658934                       # number of ReadReq miss cycles
system.cpu.dcache.ReadReq_accesses::.cpu.data     37587636                       # number of ReadReq accesses(hits+misses)
system.cpu.dcache.ReadReq_accesses::total     37587636                       # number of ReadReq accesses(hits+misses)
system.cpu.dcache.ReadReq_miss_rate::.cpu.data     0.000326                       # miss rate for ReadReq accesses
system.cpu.dcache.ReadReq_miss_rate::total     0.000326                       # miss rate for ReadReq accesses
system.cpu.dcache.ReadReq_avg_miss_latency::.cpu.data 20310.294372                       # average ReadReq miss latency
system.cpu.dcache.ReadReq_avg_miss_latency::total 20310.294372                       # average ReadReq miss latency
system.cpu.dcache.ReadReq_mshr_hits::.cpu.data           98                       # number of ReadReq MSHR hits
system.cpu.dcache.ReadReq_mshr_hits::total           98                       # number of ReadReq MSHR hits
system.cpu.dcache.ReadReq_mshr_misses::.cpu.data        12145                       # number of ReadReq MSHR misses
system.cpu.dcache.ReadReq_mshr_misses::total        12145                       # number of ReadReq MSHR misses
system.cpu.dcache.ReadReq_mshr_miss_latency::.cpu.data    227599076                       # number of ReadReq MSHR miss cycles
system.cpu.dcache.ReadReq_mshr_miss_latency::total    227599076                       # number of ReadReq MSHR miss cycles
system.cpu.dcache.ReadReq_mshr_miss_rate::.cpu.data     0.000323                       # mshr miss rate for ReadReq accesses
system.cpu.dcache.ReadReq_mshr_miss_rate::total     0.000323                       # mshr miss rate for ReadReq accesses
system.cpu.dcache.ReadReq_avg_mshr_miss_latency::.cpu.data 18740.146233                       # average ReadReq mshr miss latency
system.cpu.dcache.ReadReq_avg_mshr_miss_latency::total 18740.146233                       # average ReadReq mshr miss latency
system.cpu.dcache.WriteReq_hits::.cpu.data      6263645                       # number of WriteReq hits
system.cpu.dcache.WriteReq_hits::total        6263645                       # number of WriteReq hits
system.cpu.dcache.WriteReq_misses::.cpu.data        57203                       # number of WriteReq misses
system.cpu.dcache.WriteReq_misses::total        57203                       # number of WriteReq misses
system.cpu.dcache.WriteReq_miss_latency::.cpu.data   1396838737                       # number of WriteReq miss cycles
system.cpu.dcache.WriteReq_miss_latency::total   1396838737                       # number of WriteReq miss cycles
system.cpu.dcache.WriteReq_accesses::.cpu.data      6320848                       # number of WriteReq accesses(hits+misses)
system.cpu.dcache.WriteReq_accesses::total      6320848                       # number of WriteReq accesses(hits+misses)
system.cpu.dcache.WriteReq_miss_rate::.cpu.data     0.009050                       # miss rate for WriteReq accesses
system.cpu.dcache.WriteReq_miss_rate::total     0.009050                       # miss rate for WriteReq accesses
system.cpu.dcache.WriteReq_avg_miss_latency::.cpu.data 24418.976924                       # average WriteReq miss latency
system.cpu.dcache.WriteReq_avg_miss_latency::total 24418.976924                       # average WriteReq miss latency
system.cpu.dcache.WriteReq_mshr_hits::.cpu.data         5027                       # number of WriteReq MSHR hits
system.cpu.dcache.WriteReq_mshr_hits::total         5027                       # number of WriteReq MSHR hits
system.cpu.dcache.WriteReq_mshr_misses::.cpu.data        52176                       # number of WriteReq MSHR misses
system.cpu.dcache.WriteReq_mshr_misses::total        52176                       # number of WriteReq MSHR misses
system.cpu.dcache.WriteReq_mshr_miss_latency::.cpu.data   1093897342                       # number of WriteReq MSHR miss cycles
system.cpu.dcache.WriteReq_mshr_miss_latency::total   1093897342                       # number of WriteReq MSHR miss cycles
system.cpu.dcache.WriteReq_mshr_miss_rate::.cpu.data     0.008255                       # mshr miss rate for WriteReq accesses
system.cpu.dcache.WriteReq_mshr_miss_rate::total     0.008255                       # mshr miss rate for WriteReq accesses
system.cpu.dcache.WriteReq_avg_mshr_miss_latency::.cpu.data 20965.527101                       # average WriteReq mshr miss latency
system.cpu.dcache.WriteReq_avg_mshr_miss_latency::total 20965.527101                       # average WriteReq mshr miss latency
system.cpu.dcache.SoftPFReq_hits::.cpu.data         8572                       # number of SoftPFReq hits
system.cpu.dcache.SoftPFReq_hits::total          8572                       # number of SoftPFReq hits
system.cpu.dcache.SoftPFReq_misses::.cpu.data          144                       # number of SoftPFReq misses
system.cpu.dcache.SoftPFReq_misses::total          144                       # number of SoftPFReq misses
system.cpu.dcache.SoftPFReq_accesses::.cpu.data         8716                       # number of SoftPFReq accesses(hits+misses)
system.cpu.dcache.SoftPFReq_accesses::total         8716                       # number of SoftPFReq accesses(hits+misses)
system.cpu.dcache.SoftPFReq_miss_rate::.cpu.data     0.016521                       # miss rate for SoftPFReq accesses
system.cpu.dcache.SoftPFReq_miss_rate::total     0.016521                       # miss rate for SoftPFReq accesses
system.cpu.dcache.SoftPFReq_mshr_misses::.cpu.data          132                       # number of SoftPFReq MSHR misses
system.cpu.dcache.SoftPFReq_mshr_misses::total          132                       # number of SoftPFReq MSHR misses
system.cpu.dcache.SoftPFReq_mshr_miss_latency::.cpu.data      8520925                       # number of SoftPFReq MSHR miss cycles
system.cpu.dcache.SoftPFReq_mshr_miss_latency::total      8520925                       # number of SoftPFReq MSHR miss cycles
system.cpu.dcache.SoftPFReq_mshr_miss_rate::.cpu.data     0.015145                       # mshr miss rate for SoftPFReq accesses
system.cpu.dcache.SoftPFReq_mshr_miss_rate::total     0.015145                       # mshr miss rate for SoftPFReq accesses
system.cpu.dcache.SoftPFReq_avg_mshr_miss_latency::.cpu.data 64552.462121                       # average SoftPFReq mshr miss latency
system.cpu.dcache.SoftPFReq_avg_mshr_miss_latency::total 64552.462121                       # average SoftPFReq mshr miss latency
system.cpu.dcache.LoadLockedReq_hits::.cpu.data          165                       # number of LoadLockedReq hits
system.cpu.dcache.LoadLockedReq_hits::total          165                       # number of LoadLockedReq hits
system.cpu.dcache.LoadLockedReq_misses::.cpu.data            1                       # number of LoadLockedReq misses
system.cpu.dcache.LoadLockedReq_misses::total            1                       # number of LoadLockedReq misses
system.cpu.dcache.LoadLockedReq_miss_latency::.cpu.data        94714                       # number of LoadLockedReq miss cycles
system.cpu.dcache.LoadLockedReq_miss_latency::total        94714                       # number of LoadLockedReq miss cycles
system.cpu.dcache.LoadLockedReq_accesses::.cpu.data          166                       # number of LoadLockedReq accesses(hits+misses)
system.cpu.dcache.LoadLockedReq_accesses::total          166                       # number of LoadLockedReq accesses(hits+misses)
system.cpu.dcache.LoadLockedReq_miss_rate::.cpu.data     0.006024                       # miss rate for LoadLockedReq accesses
system.cpu.dcache.LoadLockedReq_miss_rate::total     0.006024                       # miss rate for LoadLockedReq accesses
system.cpu.dcache.LoadLockedReq_avg_miss_latency::.cpu.data        94714                       # average LoadLockedReq miss latency
system.cpu.dcache.LoadLockedReq_avg_miss_latency::total        94714                       # average LoadLockedReq miss latency
system.cpu.dcache.LoadLockedReq_mshr_misses::.cpu.data            1                       # number of LoadLockedReq MSHR misses
system.cpu.dcache.LoadLockedReq_mshr_misses::total            1                       # number of LoadLockedReq MSHR misses
system.cpu.dcache.LoadLockedReq_mshr_miss_latency::.cpu.data        93380                       # number of LoadLockedReq MSHR miss cycles
system.cpu.dcache.LoadLockedReq_mshr_miss_latency::total        93380                       # number of LoadLockedReq MSHR miss cycles
system.cpu.dcache.LoadLockedReq_mshr_miss_rate::.cpu.data     0.006024                       # mshr miss rate for LoadLockedReq accesses
system.cpu.dcache.LoadLockedReq_mshr_miss_rate::total     0.006024                       # mshr miss rate for LoadLockedReq accesses
system.cpu.dcache.LoadLockedReq_avg_mshr_miss_latency::.cpu.data        93380                       # average LoadLockedReq mshr miss latency
system.cpu.dcache.LoadLockedReq_avg_mshr_miss_latency::total        93380                       # average LoadLockedReq mshr miss latency
system.cpu.dcache.StoreCondReq_hits::.cpu.data          166                       # number of StoreCondReq hits
system.cpu.dcache.StoreCondReq_hits::total          166                       # number of StoreCondReq hits
system.cpu.dcache.StoreCondReq_accesses::.cpu.data          166                       # number of StoreCondReq accesses(hits+misses)
system.cpu.dcache.StoreCondReq_accesses::total          166                       # number of StoreCondReq accesses(hits+misses)
system.cpu.dcache.power_state.pwrStateResidencyTicks::UNDEFINED  79104743939                       # Cumulative time (in ticks) in various power states
system.cpu.dcache.tags.tagsinuse          1014.834376                       # Cycle average of tags in use
system.cpu.dcache.tags.total_refs            43912395                       # Total number of references to valid blocks.
system.cpu.dcache.tags.sampled_refs             64454                       # Sample count of references to valid blocks.
system.cpu.dcache.tags.avg_refs            681.298213                       # Average number of references to valid blocks.
system.cpu.dcache.tags.warmup_cycle            192096                       # Cycle when the warmup percentage was hit.
system.cpu.dcache.tags.occ_blocks::.cpu.data  1014.834376                       # Average occupied blocks per requestor
system.cpu.dcache.tags.occ_percent::.cpu.data     0.991049                       # Average percentage of cache occupancy
system.cpu.dcache.tags.occ_percent::total     0.991049                       # Average percentage of cache occupancy
system.cpu.dcache.tags.occ_task_id_blocks::1024         1024                       # Occupied blocks per task id
system.cpu.dcache.tags.age_task_id_blocks_1024::0            8                       # Occupied blocks per task id
system.cpu.dcache.tags.age_task_id_blocks_1024::1           93                       # Occupied blocks per task id
system.cpu.dcache.tags.age_task_id_blocks_1024::2          615                       # Occupied blocks per task id
system.cpu.dcache.tags.age_task_id_blocks_1024::3          267                       # Occupied blocks per task id
system.cpu.dcache.tags.age_task_id_blocks_1024::4           41                       # Occupied blocks per task id
system.cpu.dcache.tags.occ_task_id_percent::1024            1                       # Percentage of cache occupancy per task id
system.cpu.dcache.tags.tag_accesses         175734582                       # Number of tag accesses
system.cpu.dcache.tags.data_accesses        175734582                       # Number of data accesses
system.cpu.dcache.tags.power_state.pwrStateResidencyTicks::UNDEFINED  79104743939                       # Cumulative time (in ticks) in various power states
system.cpu.dtb.instHits                             0                       # ITB inst hits
system.cpu.dtb.instMisses                           0                       # ITB inst misses
system.cpu.dtb.readHits                             0                       # DTB read hits
system.cpu.dtb.readMisses                           0                       # DTB read misses
system.cpu.dtb.writeHits                            0                       # DTB write hits
system.cpu.dtb.writeMisses                          0                       # DTB write misses
system.cpu.dtb.inserts                              0                       # Number of times an entry is inserted into the TLB
system.cpu.dtb.flushTlb                             0                       # Number of times complete TLB was flushed
system.cpu.dtb.flushTlbMva                          0                       # Number of times TLB was flushed by MVA
system.cpu.dtb.flushTlbMvaAsid                      0                       # Number of times TLB was flushed by MVA & ASID
system.cpu.dtb.flushTlbAsid                         0                       # Number of times TLB was flushed by ASID
system.cpu.dtb.flushedEntries                       0                       # Number of entries that have been flushed from TLB
system.cpu.dtb.alignFaults                          0                       # Number of TLB faults due to alignment restrictions
system.cpu.dtb.prefetchFaults                       0                       # Number of TLB faults due to prefetch
system.cpu.dtb.domainFaults                         0                       # Number of TLB faults due to domain restrictions
system.cpu.dtb.permsFaults                          0                       # Number of TLB faults due to permissions restrictions
system.cpu.dtb.readAccesses                         0                       # DTB read accesses
system.cpu.dtb.writeAccesses                        0                       # DTB write accesses
system.cpu.dtb.instAccesses                         0                       # ITB inst accesses
system.cpu.dtb.hits                                 0                       # Total TLB (inst and data) hits
system.cpu.dtb.misses                               0                       # Total TLB (inst and data) misses
system.cpu.dtb.accesses                             0                       # Total TLB (inst and data) accesses
system.cpu.dtb.stage2_mmu.stage2_tlb.instHits            0                       # ITB inst hits
system.cpu.dtb.stage2_mmu.stage2_tlb.instMisses            0                       # ITB inst misses
system.cpu.dtb.stage2_mmu.stage2_tlb.readHits            0                       # DTB read hits
system.cpu.dtb.stage2_mmu.stage2_tlb.readMisses            0                       # DTB read misses
system.cpu.dtb.stage2_mmu.stage2_tlb.writeHits            0                       # DTB write hits
system.cpu.dtb.stage2_mmu.stage2_tlb.writeMisses            0                       # DTB write misses
system.cpu.dtb.stage2_mmu.stage2_tlb.inserts            0                       # Number of times an entry is inserted into the TLB
system.cpu.dtb.stage2_mmu.stage2_tlb.flushTlb            0                       # Number of times complete TLB was flushed
system.cpu.dtb.stage2_mmu.stage2_tlb.flushTlbMva            0                       # Number of times TLB was flushed by MVA
system.cpu.dtb.stage2_mmu.stage2_tlb.flushTlbMvaAsid            0                       # Number of times TLB was flushed by MVA & ASID
system.cpu.dtb.stage2_mmu.stage2_tlb.flushTlbAsid            0                       # Number of times TLB was flushed by ASID
system.cpu.dtb.stage2_mmu.stage2_tlb.flushedEntries            0                       # Number of entries that have been flushed from TLB
system.cpu.dtb.stage2_mmu.stage2_tlb.alignFaults            0                       # Number of TLB faults due to alignment restrictions
system.cpu.dtb.stage2_mmu.stage2_tlb.prefetchFaults            0                       # Number of TLB faults due to prefetch
system.cpu.dtb.stage2_mmu.stage2_tlb.domainFaults            0                       # Number of TLB faults due to domain restrictions
system.cpu.dtb.stage2_mmu.stage2_tlb.permsFaults            0                       # Number of TLB faults due to permissions restrictions
system.cpu.dtb.stage2_mmu.stage2_tlb.readAccesses            0                       # DTB read accesses
system.cpu.dtb.stage2_mmu.stage2_tlb.writeAccesses            0                       # DTB write accesses
system.cpu.dtb.stage2_mmu.stage2_tlb.instAccesses            0                       # ITB inst accesses
system.cpu.dtb.stage2_mmu.stage2_tlb.hits            0                       # Total TLB (inst and data) hits
system.cpu.dtb.stage2_mmu.stage2_tlb.misses            0                       # Total TLB (inst and data) misses
system.cpu.dtb.stage2_mmu.stage2_tlb.accesses            0                       # Total TLB (inst and data) accesses
system.cpu.dtb.stage2_mmu.stage2_tlb.walker.walks            0                       # Table walker walks requested
system.cpu.dtb.stage2_mmu.stage2_tlb.walker.requestOrigin_Requested::Data            0                       # Table walker requests started/completed, data/inst
system.cpu.dtb.stage2_mmu.stage2_tlb.walker.requestOrigin_Requested::Inst            0                       # Table walker requests started/completed, data/inst
system.cpu.dtb.stage2_mmu.stage2_tlb.walker.requestOrigin_Requested::total            0                       # Table walker requests started/completed, data/inst
system.cpu.dtb.stage2_mmu.stage2_tlb.walker.requestOrigin_Completed::Data            0                       # Table walker requests started/completed, data/inst
system.cpu.dtb.stage2_mmu.stage2_tlb.walker.requestOrigin_Completed::Inst            0                       # Table walker requests started/completed, data/inst
system.cpu.dtb.stage2_mmu.stage2_tlb.walker.requestOrigin_Completed::total            0                       # Table walker requests started/completed, data/inst
system.cpu.dtb.stage2_mmu.stage2_tlb.walker.requestOrigin::total            0                       # Table walker requests started/completed, data/inst
system.cpu.dtb.stage2_mmu.stage2_tlb.walker.power_state.pwrStateResidencyTicks::UNDEFINED  79104743939                       # Cumulative time (in ticks) in various power states
system.cpu.dtb.walker.walks                         0                       # Table walker walks requested
system.cpu.dtb.walker.requestOrigin_Requested::Data            0                       # Table walker requests started/completed, data/inst
system.cpu.dtb.walker.requestOrigin_Requested::Inst            0                       # Table walker requests started/completed, data/inst
system.cpu.dtb.walker.requestOrigin_Requested::total            0                       # Table walker requests started/completed, data/inst
system.cpu.dtb.walker.requestOrigin_Completed::Data            0                       # Table walker requests started/completed, data/inst
system.cpu.dtb.walker.requestOrigin_Completed::Inst            0                       # Table walker requests started/completed, data/inst
system.cpu.dtb.walker.requestOrigin_Completed::total            0                       # Table walker requests started/completed, data/inst
system.cpu.dtb.walker.requestOrigin::total            0                       # Table walker requests started/completed, data/inst
system.cpu.dtb.walker.power_state.pwrStateResidencyTicks::UNDEFINED  79104743939                       # Cumulative time (in ticks) in various power states
system.cpu.fetch2.intInstructions            48868823                       # Number of integer instructions successfully decoded
system.cpu.fetch2.fpInstructions                    0                       # Number of floating point instructions successfully decoded
system.cpu.fetch2.vecInstructions                   0                       # Number of SIMD instructions successfully decoded
system.cpu.fetch2.loadInstructions           40552940                       # Number of memory load instructions successfully decoded
system.cpu.fetch2.storeInstructions           6265871                       # Number of memory store instructions successfully decoded
system.cpu.fetch2.amoInstructions                   0                       # Number of memory atomic instructions successfully decoded
system.cpu.icache.demand_hits::.cpu.inst     17290156                       # number of demand (read+write) hits
system.cpu.icache.demand_hits::total         17290156                       # number of demand (read+write) hits
system.cpu.icache.overall_hits::.cpu.inst     17290156                       # number of overall hits
system.cpu.icache.overall_hits::total        17290156                       # number of overall hits
system.cpu.icache.demand_misses::.cpu.inst         2259                       # number of demand (read+write) misses
system.cpu.icache.demand_misses::total           2259                       # number of demand (read+write) misses
system.cpu.icache.overall_misses::.cpu.inst         2259                       # number of overall misses
system.cpu.icache.overall_misses::total          2259                       # number of overall misses
system.cpu.icache.demand_miss_latency::.cpu.inst    130768685                       # number of demand (read+write) miss cycles
system.cpu.icache.demand_miss_latency::total    130768685                       # number of demand (read+write) miss cycles
system.cpu.icache.overall_miss_latency::.cpu.inst    130768685                       # number of overall miss cycles
system.cpu.icache.overall_miss_latency::total    130768685                       # number of overall miss cycles
system.cpu.icache.demand_accesses::.cpu.inst     17292415                       # number of demand (read+write) accesses
system.cpu.icache.demand_accesses::total     17292415                       # number of demand (read+write) accesses
system.cpu.icache.overall_accesses::.cpu.inst     17292415                       # number of overall (read+write) accesses
system.cpu.icache.overall_accesses::total     17292415                       # number of overall (read+write) accesses
system.cpu.icache.demand_miss_rate::.cpu.inst     0.000131                       # miss rate for demand accesses
system.cpu.icache.demand_miss_rate::total     0.000131                       # miss rate for demand accesses
system.cpu.icache.overall_miss_rate::.cpu.inst     0.000131                       # miss rate for overall accesses
system.cpu.icache.overall_miss_rate::total     0.000131                       # miss rate for overall accesses
system.cpu.icache.demand_avg_miss_latency::.cpu.inst 57887.864099                       # average overall miss latency
system.cpu.icache.demand_avg_miss_latency::total 57887.864099                       # average overall miss latency
system.cpu.icache.overall_avg_miss_latency::.cpu.inst 57887.864099                       # average overall miss latency
system.cpu.icache.overall_avg_miss_latency::total 57887.864099                       # average overall miss latency
system.cpu.icache.blocked_cycles::no_mshrs            0                       # number of cycles access was blocked
system.cpu.icache.blocked_cycles::no_targets            0                       # number of cycles access was blocked
system.cpu.icache.blocked::no_mshrs                 0                       # number of cycles access was blocked
system.cpu.icache.blocked::no_targets               0                       # number of cycles access was blocked
system.cpu.icache.avg_blocked_cycles::no_mshrs          nan                       # average number of cycles each access was blocked
system.cpu.icache.avg_blocked_cycles::no_targets          nan                       # average number of cycles each access was blocked
system.cpu.icache.writebacks::.writebacks         1747                       # number of writebacks
system.cpu.icache.writebacks::total              1747                       # number of writebacks
system.cpu.icache.demand_mshr_misses::.cpu.inst         2259                       # number of demand (read+write) MSHR misses
system.cpu.icache.demand_mshr_misses::total         2259                       # number of demand (read+write) MSHR misses
system.cpu.icache.overall_mshr_misses::.cpu.inst         2259                       # number of overall MSHR misses
system.cpu.icache.overall_mshr_misses::total         2259                       # number of overall MSHR misses
system.cpu.icache.demand_mshr_miss_latency::.cpu.inst    127755179                       # number of demand (read+write) MSHR miss cycles
system.cpu.icache.demand_mshr_miss_latency::total    127755179                       # number of demand (read+write) MSHR miss cycles
system.cpu.icache.overall_mshr_miss_latency::.cpu.inst    127755179                       # number of overall MSHR miss cycles
system.cpu.icache.overall_mshr_miss_latency::total    127755179                       # number of overall MSHR miss cycles
system.cpu.icache.demand_mshr_miss_rate::.cpu.inst     0.000131                       # mshr miss rate for demand accesses
system.cpu.icache.demand_mshr_miss_rate::total     0.000131                       # mshr miss rate for demand accesses
system.cpu.icache.overall_mshr_miss_rate::.cpu.inst     0.000131                       # mshr miss rate for overall accesses
system.cpu.icache.overall_mshr_miss_rate::total     0.000131                       # mshr miss rate for overall accesses
system.cpu.icache.demand_avg_mshr_miss_latency::.cpu.inst 56553.864099                       # average overall mshr miss latency
system.cpu.icache.demand_avg_mshr_miss_latency::total 56553.864099                       # average overall mshr miss latency
system.cpu.icache.overall_avg_mshr_miss_latency::.cpu.inst 56553.864099                       # average overall mshr miss latency
system.cpu.icache.overall_avg_mshr_miss_latency::total 56553.864099                       # average overall mshr miss latency
system.cpu.icache.replacements                   1747                       # number of replacements
system.cpu.icache.ReadReq_hits::.cpu.inst     17290156                       # number of ReadReq hits
system.cpu.icache.ReadReq_hits::total        17290156                       # number of ReadReq hits
system.cpu.icache.ReadReq_misses::.cpu.inst         2259                       # number of ReadReq misses
system.cpu.icache.ReadReq_misses::total          2259                       # number of ReadReq misses
system.cpu.icache.ReadReq_miss_latency::.cpu.inst    130768685                       # number of ReadReq miss cycles
system.cpu.icache.ReadReq_miss_latency::total    130768685                       # number of ReadReq miss cycles
system.cpu.icache.ReadReq_accesses::.cpu.inst     17292415                       # number of ReadReq accesses(hits+misses)
system.cpu.icache.ReadReq_accesses::total     17292415                       # number of ReadReq accesses(hits+misses)
system.cpu.icache.ReadReq_miss_rate::.cpu.inst     0.000131                       # miss rate for ReadReq accesses
system.cpu.icache.ReadReq_miss_rate::total     0.000131                       # miss rate for ReadReq accesses
system.cpu.icache.ReadReq_avg_miss_latency::.cpu.inst 57887.864099                       # average ReadReq miss latency
system.cpu.icache.ReadReq_avg_miss_latency::total 57887.864099                       # average ReadReq miss latency
system.cpu.icache.ReadReq_mshr_misses::.cpu.inst         2259                       # number of ReadReq MSHR misses
system.cpu.icache.ReadReq_mshr_misses::total         2259                       # number of ReadReq MSHR misses
system.cpu.icache.ReadReq_mshr_miss_latency::.cpu.inst    127755179                       # number of ReadReq MSHR miss cycles
system.cpu.icache.ReadReq_mshr_miss_latency::total    127755179                       # number of ReadReq MSHR miss cycles
system.cpu.icache.ReadReq_mshr_miss_rate::.cpu.inst     0.000131                       # mshr miss rate for ReadReq accesses
system.cpu.icache.ReadReq_mshr_miss_rate::total     0.000131                       # mshr miss rate for ReadReq accesses
system.cpu.icache.ReadReq_avg_mshr_miss_latency::.cpu.inst 56553.864099                       # average ReadReq mshr miss latency
system.cpu.icache.ReadReq_avg_mshr_miss_latency::total 56553.864099                       # average ReadReq mshr miss latency
system.cpu.icache.power_state.pwrStateResidencyTicks::UNDEFINED  79104743939                       # Cumulative time (in ticks) in various power states
system.cpu.icache.tags.tagsinuse           511.696000                       # Cycle average of tags in use
system.cpu.icache.tags.total_refs            17292415                       # Total number of references to valid blocks.
system.cpu.icache.tags.sampled_refs              2259                       # Sample count of references to valid blocks.
system.cpu.icache.tags.avg_refs           7654.898185                       # Average number of references to valid blocks.
system.cpu.icache.tags.warmup_cycle             94047                       # Cycle when the warmup percentage was hit.
system.cpu.icache.tags.occ_blocks::.cpu.inst   511.696000                       # Average occupied blocks per requestor
system.cpu.icache.tags.occ_percent::.cpu.inst     0.999406                       # Average percentage of cache occupancy
system.cpu.icache.tags.occ_percent::total     0.999406                       # Average percentage of cache occupancy
system.cpu.icache.tags.occ_task_id_blocks::1024          512                       # Occupied blocks per task id
system.cpu.icache.tags.age_task_id_blocks_1024::2            5                       # Occupied blocks per task id
system.cpu.icache.tags.age_task_id_blocks_1024::3           15                       # Occupied blocks per task id
system.cpu.icache.tags.age_task_id_blocks_1024::4          492                       # Occupied blocks per task id
system.cpu.icache.tags.occ_task_id_percent::1024            1                       # Percentage of cache occupancy per task id
system.cpu.icache.tags.tag_accesses          69171919                       # Number of tag accesses
system.cpu.icache.tags.data_accesses         69171919                       # Number of data accesses
system.cpu.icache.tags.power_state.pwrStateResidencyTicks::UNDEFINED  79104743939                       # Cumulative time (in ticks) in various power states
system.cpu.itb.instHits                             0                       # ITB inst hits
system.cpu.itb.instMisses                           0                       # ITB inst misses
system.cpu.itb.readHits                             0                       # DTB read hits
system.cpu.itb.readMisses                           0                       # DTB read misses
system.cpu.itb.writeHits                            0                       # DTB write hits
system.cpu.itb.writeMisses                          0                       # DTB write misses
system.cpu.itb.inserts                              0                       # Number of times an entry is inserted into the TLB
system.cpu.itb.flushTlb                             0                       # Number of times complete TLB was flushed
system.cpu.itb.flushTlbMva                          0                       # Number of times TLB was flushed by MVA
system.cpu.itb.flushTlbMvaAsid                      0                       # Number of times TLB was flushed by MVA & ASID
system.cpu.itb.flushTlbAsid                         0                       # Number of times TLB was flushed by ASID
system.cpu.itb.flushedEntries                       0                       # Number of entries that have been flushed from TLB
system.cpu.itb.alignFaults                          0                       # Number of TLB faults due to alignment restrictions
system.cpu.itb.prefetchFaults                       0                       # Number of TLB faults due to prefetch
system.cpu.itb.domainFaults                         0                       # Number of TLB faults due to domain restrictions
system.cpu.itb.permsFaults                          0                       # Number of TLB faults due to permissions restrictions
system.cpu.itb.readAccesses                         0                       # DTB read accesses
system.cpu.itb.writeAccesses                        0                       # DTB write accesses
system.cpu.itb.instAccesses                         0                       # ITB inst accesses
system.cpu.itb.hits                                 0                       # Total TLB (inst and data) hits
system.cpu.itb.misses                               0                       # Total TLB (inst and data) misses
system.cpu.itb.accesses                             0                       # Total TLB (inst and data) accesses
system.cpu.itb.stage2_mmu.stage2_tlb.instHits            0                       # ITB inst hits
system.cpu.itb.stage2_mmu.stage2_tlb.instMisses            0                       # ITB inst misses
system.cpu.itb.stage2_mmu.stage2_tlb.readHits            0                       # DTB read hits
system.cpu.itb.stage2_mmu.stage2_tlb.readMisses            0                       # DTB read misses
system.cpu.itb.stage2_mmu.stage2_tlb.writeHits            0                       # DTB write hits
system.cpu.itb.stage2_mmu.stage2_tlb.writeMisses            0                       # DTB write misses
system.cpu.itb.stage2_mmu.stage2_tlb.inserts            0                       # Number of times an entry is inserted into the TLB
system.cpu.itb.stage2_mmu.stage2_tlb.flushTlb            0                       # Number of times complete TLB was flushed
system.cpu.itb.stage2_mmu.stage2_tlb.flushTlbMva            0                       # Number of times TLB was flushed by MVA
system.cpu.itb.stage2_mmu.stage2_tlb.flushTlbMvaAsid            0                       # Number of times TLB was flushed by MVA & ASID
system.cpu.itb.stage2_mmu.stage2_tlb.flushTlbAsid            0                       # Number of times TLB was flushed by ASID
system.cpu.itb.stage2_mmu.stage2_tlb.flushedEntries            0                       # Number of entries that have been flushed from TLB
system.cpu.itb.stage2_mmu.stage2_tlb.alignFaults            0                       # Number of TLB faults due to alignment restrictions
system.cpu.itb.stage2_mmu.stage2_tlb.prefetchFaults            0                       # Number of TLB faults due to prefetch
system.cpu.itb.stage2_mmu.stage2_tlb.domainFaults            0                       # Number of TLB faults due to domain restrictions
system.cpu.itb.stage2_mmu.stage2_tlb.permsFaults            0                       # Number of TLB faults due to permissions restrictions
system.cpu.itb.stage2_mmu.stage2_tlb.readAccesses            0                       # DTB read accesses
system.cpu.itb.stage2_mmu.stage2_tlb.writeAccesses            0                       # DTB write accesses
system.cpu.itb.stage2_mmu.stage2_tlb.instAccesses            0                       # ITB inst accesses
system.cpu.itb.stage2_mmu.stage2_tlb.hits            0                       # Total TLB (inst and data) hits
system.cpu.itb.stage2_mmu.stage2_tlb.misses            0                       # Total TLB (inst and data) misses
system.cpu.itb.stage2_mmu.stage2_tlb.accesses            0                       # Total TLB (inst and data) accesses
system.cpu.itb.stage2_mmu.stage2_tlb.walker.walks            0                       # Table walker walks requested
system.cpu.itb.stage2_mmu.stage2_tlb.walker.requestOrigin_Requested::Data            0                       # Table walker requests started/completed, data/inst
system.cpu.itb.stage2_mmu.stage2_tlb.walker.requestOrigin_Requested::Inst            0                       # Table walker requests started/completed, data/inst
system.cpu.itb.stage2_mmu.stage2_tlb.walker.requestOrigin_Requested::total            0                       # Table walker requests started/completed, data/inst
system.cpu.itb.stage2_mmu.stage2_tlb.walker.requestOrigin_Completed::Data            0                       # Table walker requests started/completed, data/inst
system.cpu.itb.stage2_mmu.stage2_tlb.walker.requestOrigin_Completed::Inst            0                       # Table walker requests started/completed, data/inst
system.cpu.itb.stage2_mmu.stage2_tlb.walker.requestOrigin_Completed::total            0                       # Table walker requests started/completed, data/inst
system.cpu.itb.stage2_mmu.stage2_tlb.walker.requestOrigin::total            0                       # Table walker requests started/completed, data/inst
system.cpu.itb.stage2_mmu.stage2_tlb.walker.power_state.pwrStateResidencyTicks::UNDEFINED  79104743939                       # Cumulative time (in ticks) in various power states
system.cpu.itb.walker.walks                         0                       # Table walker walks requested
system.cpu.itb.walker.requestOrigin_Requested::Data            0                       # Table walker requests started/completed, data/inst
system.cpu.itb.walker.requestOrigin_Requested::Inst            0                       # Table walker requests started/completed, data/inst
system.cpu.itb.walker.requestOrigin_Requested::total            0                       # Table walker requests started/completed, data/inst
system.cpu.itb.walker.requestOrigin_Completed::Data            0                       # Table walker requests started/completed, data/inst
system.cpu.itb.walker.requestOrigin_Completed::Inst            0                       # Table walker requests started/completed, data/inst
system.cpu.itb.walker.requestOrigin_Completed::total            0                       # Table walker requests started/completed, data/inst
system.cpu.itb.walker.requestOrigin::total            0                       # Table walker requests started/completed, data/inst
system.cpu.itb.walker.power_state.pwrStateResidencyTicks::UNDEFINED  79104743939                       # Cumulative time (in ticks) in various power states
system.cpu.power_state.pwrStateResidencyTicks::ON  79104743939                       # Cumulative time (in ticks) in various power states
system.cpu.thread_0.numInsts                100000000                       # Number of Instructions committed
system.cpu.thread_0.numOps                  101102730                       # Number of Ops committed
system.cpu.thread_0.numMemRefs                      0                       # Number of Memory References
system.cpu_clk_domain.clock                       667                       # Clock period in ticks
system.cpu_voltage_domain.voltage                   1                       # Voltage in Volts
system.l2.demand_hits::.cpu.inst                  961                       # number of demand (read+write) hits
system.l2.demand_hits::.cpu.data                60262                       # number of demand (read+write) hits
system.l2.demand_hits::total                    61223                       # number of demand (read+write) hits
system.l2.overall_hits::.cpu.inst                 961                       # number of overall hits
system.l2.overall_hits::.cpu.data               60262                       # number of overall hits
system.l2.overall_hits::total                   61223                       # number of overall hits
system.l2.demand_misses::.cpu.inst               1298                       # number of demand (read+write) misses
system.l2.demand_misses::.cpu.data               4192                       # number of demand (read+write) misses
system.l2.demand_misses::total                   5490                       # number of demand (read+write) misses
system.l2.overall_misses::.cpu.inst              1298                       # number of overall misses
system.l2.overall_misses::.cpu.data              4192                       # number of overall misses
system.l2.overall_misses::total                  5490                       # number of overall misses
system.l2.demand_miss_latency::.cpu.inst    109493386                       # number of demand (read+write) miss cycles
system.l2.demand_miss_latency::.cpu.data    355149486                       # number of demand (read+write) miss cycles
system.l2.demand_miss_latency::total        464642872                       # number of demand (read+write) miss cycles
system.l2.overall_miss_latency::.cpu.inst    109493386                       # number of overall miss cycles
system.l2.overall_miss_latency::.cpu.data    355149486                       # number of overall miss cycles
system.l2.overall_miss_latency::total       464642872                       # number of overall miss cycles
system.l2.demand_accesses::.cpu.inst             2259                       # number of demand (read+write) accesses
system.l2.demand_accesses::.cpu.data            64454                       # number of demand (read+write) accesses
system.l2.demand_accesses::total                66713                       # number of demand (read+write) accesses
system.l2.overall_accesses::.cpu.inst            2259                       # number of overall (read+write) accesses
system.l2.overall_accesses::.cpu.data           64454                       # number of overall (read+write) accesses
system.l2.overall_accesses::total               66713                       # number of overall (read+write) accesses
system.l2.demand_miss_rate::.cpu.inst        0.574591                       # miss rate for demand accesses
system.l2.demand_miss_rate::.cpu.data        0.065039                       # miss rate for demand accesses
system.l2.demand_miss_rate::total            0.082293                       # miss rate for demand accesses
system.l2.overall_miss_rate::.cpu.inst       0.574591                       # miss rate for overall accesses
system.l2.overall_miss_rate::.cpu.data       0.065039                       # miss rate for overall accesses
system.l2.overall_miss_rate::total           0.082293                       # miss rate for overall accesses
system.l2.demand_avg_miss_latency::.cpu.inst 84355.459168                       # average overall miss latency
system.l2.demand_avg_miss_latency::.cpu.data 84720.774332                       # average overall miss latency
system.l2.demand_avg_miss_latency::total 84634.402914                       # average overall miss latency
system.l2.overall_avg_miss_latency::.cpu.inst 84355.459168                       # average overall miss latency
system.l2.overall_avg_miss_latency::.cpu.data 84720.774332                       # average overall miss latency
system.l2.overall_avg_miss_latency::total 84634.402914                       # average overall miss latency
system.l2.blocked_cycles::no_mshrs                  0                       # number of cycles access was blocked
system.l2.blocked_cycles::no_targets                0                       # number of cycles access was blocked
system.l2.blocked::no_mshrs                         0                       # number of cycles access was blocked
system.l2.blocked::no_targets                       0                       # number of cycles access was blocked
system.l2.avg_blocked_cycles::no_mshrs            nan                       # average number of cycles each access was blocked
system.l2.avg_blocked_cycles::no_targets          nan                       # average number of cycles each access was blocked
system.l2.demand_mshr_hits::.cpu.inst               1                       # number of demand (read+write) MSHR hits
system.l2.demand_mshr_hits::.cpu.data               6                       # number of demand (read+write) MSHR hits
system.l2.demand_mshr_hits::total                   7                       # number of demand (read+write) MSHR hits
system.l2.overall_mshr_hits::.cpu.inst              1                       # number of overall MSHR hits
system.l2.overall_mshr_hits::.cpu.data              6                       # number of overall MSHR hits
system.l2.overall_mshr_hits::total                  7                       # number of overall MSHR hits
system.l2.demand_mshr_misses::.cpu.inst          1297                       # number of demand (read+write) MSHR misses
system.l2.demand_mshr_misses::.cpu.data          4186                       # number of demand (read+write) MSHR misses
system.l2.demand_mshr_misses::total              5483                       # number of demand (read+write) MSHR misses
system.l2.overall_mshr_misses::.cpu.inst         1297                       # number of overall MSHR misses
system.l2.overall_mshr_misses::.cpu.data         4186                       # number of overall MSHR misses
system.l2.overall_mshr_misses::total             5483                       # number of overall MSHR misses
system.l2.demand_mshr_miss_latency::.cpu.inst     91728121                       # number of demand (read+write) MSHR miss cycles
system.l2.demand_mshr_miss_latency::.cpu.data    297748916                       # number of demand (read+write) MSHR miss cycles
system.l2.demand_mshr_miss_latency::total    389477037                       # number of demand (read+write) MSHR miss cycles
system.l2.overall_mshr_miss_latency::.cpu.inst     91728121                       # number of overall MSHR miss cycles
system.l2.overall_mshr_miss_latency::.cpu.data    297748916                       # number of overall MSHR miss cycles
system.l2.overall_mshr_miss_latency::total    389477037                       # number of overall MSHR miss cycles
system.l2.demand_mshr_miss_rate::.cpu.inst     0.574148                       # mshr miss rate for demand accesses
system.l2.demand_mshr_miss_rate::.cpu.data     0.064946                       # mshr miss rate for demand accesses
system.l2.demand_mshr_miss_rate::total       0.082188                       # mshr miss rate for demand accesses
system.l2.overall_mshr_miss_rate::.cpu.inst     0.574148                       # mshr miss rate for overall accesses
system.l2.overall_mshr_miss_rate::.cpu.data     0.064946                       # mshr miss rate for overall accesses
system.l2.overall_mshr_miss_rate::total      0.082188                       # mshr miss rate for overall accesses
system.l2.demand_avg_mshr_miss_latency::.cpu.inst 70723.300694                       # average overall mshr miss latency
system.l2.demand_avg_mshr_miss_latency::.cpu.data 71129.698041                       # average overall mshr miss latency
system.l2.demand_avg_mshr_miss_latency::total 71033.565019                       # average overall mshr miss latency
system.l2.overall_avg_mshr_miss_latency::.cpu.inst 70723.300694                       # average overall mshr miss latency
system.l2.overall_avg_mshr_miss_latency::.cpu.data 71129.698041                       # average overall mshr miss latency
system.l2.overall_avg_mshr_miss_latency::total 71033.565019                       # average overall mshr miss latency
system.l2.replacements                              0                       # number of replacements
system.l2.WritebackDirty_hits::.writebacks        61606                       # number of WritebackDirty hits
system.l2.WritebackDirty_hits::total            61606                       # number of WritebackDirty hits
system.l2.WritebackDirty_accesses::.writebacks        61606                       # number of WritebackDirty accesses(hits+misses)
system.l2.WritebackDirty_accesses::total        61606                       # number of WritebackDirty accesses(hits+misses)
system.l2.WritebackClean_hits::.writebacks         1606                       # number of WritebackClean hits
system.l2.WritebackClean_hits::total             1606                       # number of WritebackClean hits
system.l2.WritebackClean_accesses::.writebacks         1606                       # number of WritebackClean accesses(hits+misses)
system.l2.WritebackClean_accesses::total         1606                       # number of WritebackClean accesses(hits+misses)
system.l2.ReadExReq_hits::.cpu.data             48510                       # number of ReadExReq hits
system.l2.ReadExReq_hits::total                 48510                       # number of ReadExReq hits
system.l2.ReadExReq_misses::.cpu.data            3666                       # number of ReadExReq misses
system.l2.ReadExReq_misses::total                3666                       # number of ReadExReq misses
system.l2.ReadExReq_miss_latency::.cpu.data    309292569                       # number of ReadExReq miss cycles
system.l2.ReadExReq_miss_latency::total     309292569                       # number of ReadExReq miss cycles
system.l2.ReadExReq_accesses::.cpu.data         52176                       # number of ReadExReq accesses(hits+misses)
system.l2.ReadExReq_accesses::total             52176                       # number of ReadExReq accesses(hits+misses)
system.l2.ReadExReq_miss_rate::.cpu.data     0.070262                       # miss rate for ReadExReq accesses
system.l2.ReadExReq_miss_rate::total         0.070262                       # miss rate for ReadExReq accesses
system.l2.ReadExReq_avg_miss_latency::.cpu.data 84367.858429                       # average ReadExReq miss latency
system.l2.ReadExReq_avg_miss_latency::total 84367.858429                       # average ReadExReq miss latency
system.l2.ReadExReq_mshr_misses::.cpu.data         3666                       # number of ReadExReq MSHR misses
system.l2.ReadExReq_mshr_misses::total           3666                       # number of ReadExReq MSHR misses
system.l2.ReadExReq_mshr_miss_latency::.cpu.data    259390338                       # number of ReadExReq MSHR miss cycles
system.l2.ReadExReq_mshr_miss_latency::total    259390338                       # number of ReadExReq MSHR miss cycles
system.l2.ReadExReq_mshr_miss_rate::.cpu.data     0.070262                       # mshr miss rate for ReadExReq accesses
system.l2.ReadExReq_mshr_miss_rate::total     0.070262                       # mshr miss rate for ReadExReq accesses
system.l2.ReadExReq_avg_mshr_miss_latency::.cpu.data 70755.684124                       # average ReadExReq mshr miss latency
system.l2.ReadExReq_avg_mshr_miss_latency::total 70755.684124                       # average ReadExReq mshr miss latency
system.l2.ReadCleanReq_hits::.cpu.inst            961                       # number of ReadCleanReq hits
system.l2.ReadCleanReq_hits::total                961                       # number of ReadCleanReq hits
system.l2.ReadCleanReq_misses::.cpu.inst         1298                       # number of ReadCleanReq misses
system.l2.ReadCleanReq_misses::total             1298                       # number of ReadCleanReq misses
system.l2.ReadCleanReq_miss_latency::.cpu.inst    109493386                       # number of ReadCleanReq miss cycles
system.l2.ReadCleanReq_miss_latency::total    109493386                       # number of ReadCleanReq miss cycles
system.l2.ReadCleanReq_accesses::.cpu.inst         2259                       # number of ReadCleanReq accesses(hits+misses)
system.l2.ReadCleanReq_accesses::total           2259                       # number of ReadCleanReq accesses(hits+misses)
system.l2.ReadCleanReq_miss_rate::.cpu.inst     0.574591                       # miss rate for ReadCleanReq accesses
system.l2.ReadCleanReq_miss_rate::total      0.574591                       # miss rate for ReadCleanReq accesses
system.l2.ReadCleanReq_avg_miss_latency::.cpu.inst 84355.459168                       # average ReadCleanReq miss latency
system.l2.ReadCleanReq_avg_miss_latency::total 84355.459168                       # average ReadCleanReq miss latency
system.l2.ReadCleanReq_mshr_hits::.cpu.inst            1                       # number of ReadCleanReq MSHR hits
system.l2.ReadCleanReq_mshr_hits::total             1                       # number of ReadCleanReq MSHR hits
system.l2.ReadCleanReq_mshr_misses::.cpu.inst         1297                       # number of ReadCleanReq MSHR misses
system.l2.ReadCleanReq_mshr_misses::total         1297                       # number of ReadCleanReq MSHR misses
system.l2.ReadCleanReq_mshr_miss_latency::.cpu.inst     91728121                       # number of ReadCleanReq MSHR miss cycles
system.l2.ReadCleanReq_mshr_miss_latency::total     91728121                       # number of ReadCleanReq MSHR miss cycles
system.l2.ReadCleanReq_mshr_miss_rate::.cpu.inst     0.574148                       # mshr miss rate for ReadCleanReq accesses
system.l2.ReadCleanReq_mshr_miss_rate::total     0.574148                       # mshr miss rate for ReadCleanReq accesses
system.l2.ReadCleanReq_avg_mshr_miss_latency::.cpu.inst 70723.300694                       # average ReadCleanReq mshr miss latency
system.l2.ReadCleanReq_avg_mshr_miss_latency::total 70723.300694                       # average ReadCleanReq mshr miss latency
system.l2.ReadSharedReq_hits::.cpu.data         11752                       # number of ReadSharedReq hits
system.l2.ReadSharedReq_hits::total             11752                       # number of ReadSharedReq hits
system.l2.ReadSharedReq_misses::.cpu.data          526                       # number of ReadSharedReq misses
system.l2.ReadSharedReq_misses::total             526                       # number of ReadSharedReq misses
system.l2.ReadSharedReq_miss_latency::.cpu.data     45856917                       # number of ReadSharedReq miss cycles
system.l2.ReadSharedReq_miss_latency::total     45856917                       # number of ReadSharedReq miss cycles
system.l2.ReadSharedReq_accesses::.cpu.data        12278                       # number of ReadSharedReq accesses(hits+misses)
system.l2.ReadSharedReq_accesses::total         12278                       # number of ReadSharedReq accesses(hits+misses)
system.l2.ReadSharedReq_miss_rate::.cpu.data     0.042841                       # miss rate for ReadSharedReq accesses
system.l2.ReadSharedReq_miss_rate::total     0.042841                       # miss rate for ReadSharedReq accesses
system.l2.ReadSharedReq_avg_miss_latency::.cpu.data 87180.450570                       # average ReadSharedReq miss latency
system.l2.ReadSharedReq_avg_miss_latency::total 87180.450570                       # average ReadSharedReq miss latency
system.l2.ReadSharedReq_mshr_hits::.cpu.data            6                       # number of ReadSharedReq MSHR hits
system.l2.ReadSharedReq_mshr_hits::total            6                       # number of ReadSharedReq MSHR hits
system.l2.ReadSharedReq_mshr_misses::.cpu.data          520                       # number of ReadSharedReq MSHR misses
system.l2.ReadSharedReq_mshr_misses::total          520                       # number of ReadSharedReq MSHR misses
system.l2.ReadSharedReq_mshr_miss_latency::.cpu.data     38358578                       # number of ReadSharedReq MSHR miss cycles
system.l2.ReadSharedReq_mshr_miss_latency::total     38358578                       # number of ReadSharedReq MSHR miss cycles
system.l2.ReadSharedReq_mshr_miss_rate::.cpu.data     0.042352                       # mshr miss rate for ReadSharedReq accesses
system.l2.ReadSharedReq_mshr_miss_rate::total     0.042352                       # mshr miss rate for ReadSharedReq accesses
system.l2.ReadSharedReq_avg_mshr_miss_latency::.cpu.data 73766.496154                       # average ReadSharedReq mshr miss latency
system.l2.ReadSharedReq_avg_mshr_miss_latency::total 73766.496154                       # average ReadSharedReq mshr miss latency
system.l2.power_state.pwrStateResidencyTicks::UNDEFINED  79104743939                       # Cumulative time (in ticks) in various power states
system.l2.tags.tagsinuse                  5280.876045                       # Cycle average of tags in use
system.l2.tags.total_refs                      130955                       # Total number of references to valid blocks.
system.l2.tags.sampled_refs                      5483                       # Sample count of references to valid blocks.
system.l2.tags.avg_refs                     23.883823                       # Average number of references to valid blocks.
system.l2.tags.warmup_cycle                     80000                       # Cycle when the warmup percentage was hit.
system.l2.tags.occ_blocks::.cpu.inst      1290.930983                       # Average occupied blocks per requestor
system.l2.tags.occ_blocks::.cpu.data      3989.945062                       # Average occupied blocks per requestor
system.l2.tags.occ_percent::.cpu.inst        0.039396                       # Average percentage of cache occupancy
system.l2.tags.occ_percent::.cpu.data        0.121763                       # Average percentage of cache occupancy
system.l2.tags.occ_percent::total            0.161160                       # Average percentage of cache occupancy
system.l2.tags.occ_task_id_blocks::1024          5483                       # Occupied blocks per task id
system.l2.tags.age_task_id_blocks_1024::4         5483                       # Occupied blocks per task id
system.l2.tags.occ_task_id_percent::1024     0.167328                       # Percentage of cache occupancy per task id
system.l2.tags.tag_accesses                   1053179                       # Number of tag accesses
system.l2.tags.data_accesses                  1053179                       # Number of data accesses
system.l2.tags.power_state.pwrStateResidencyTicks::UNDEFINED  79104743939                       # Cumulative time (in ticks) in various power states
system.mem_ctrls.avgPriority_.cpu.inst::samples      1297.00                       # Average QoS priority value for accepted requests
system.mem_ctrls.avgPriority_.cpu.data::samples      4186.00                       # Average QoS priority value for accepted requests
system.mem_ctrls.priorityMinLatency      0.000000018750                       # per QoS priority minimum request to response latency (s)
system.mem_ctrls.priorityMaxLatency      0.000000578692                       # per QoS priority maximum request to response latency (s)
system.mem_ctrls.numReadWriteTurnArounds            0                       # Number of turnarounds from READ to WRITE
system.mem_ctrls.numWriteReadTurnArounds            0                       # Number of turnarounds from WRITE to READ
system.mem_ctrls.numStayReadState               31273                       # Number of times bus staying in READ state
system.mem_ctrls.numStayWriteState                  0                       # Number of times bus staying in WRITE state
system.mem_ctrls.readReqs                        5483                       # Number of read requests accepted
system.mem_ctrls.writeReqs                          0                       # Number of write requests accepted
system.mem_ctrls.readBursts                      5483                       # Number of controller read bursts, including those serviced by the write queue
system.mem_ctrls.writeBursts                        0                       # Number of controller write bursts, including those merged in the write queue
system.mem_ctrls.servicedByWrQ                      0                       # Number of controller read bursts serviced by the write queue
system.mem_ctrls.mergedWrBursts                     0                       # Number of controller write bursts merged with an existing one
system.mem_ctrls.neitherReadNorWriteReqs            0                       # Number of requests that are neither read nor write
system.mem_ctrls.avgRdQLen                       1.00                       # Average read queue length when enqueuing
system.mem_ctrls.avgWrQLen                       0.00                       # Average write queue length when enqueuing
system.mem_ctrls.numRdRetry                         0                       # Number of times read queue was full causing retry
system.mem_ctrls.numWrRetry                         0                       # Number of times write queue was full causing retry
system.mem_ctrls.readPktSize::0                     0                       # Read request sizes (log2)
system.mem_ctrls.readPktSize::1                     0                       # Read request sizes (log2)
system.mem_ctrls.readPktSize::2                     0                       # Read request sizes (log2)
system.mem_ctrls.readPktSize::3                     0                       # Read request sizes (log2)
system.mem_ctrls.readPktSize::4                     0                       # Read request sizes (log2)
system.mem_ctrls.readPktSize::5                     0                       # Read request sizes (log2)
system.mem_ctrls.readPktSize::6                  5483                       # Read request sizes (log2)
system.mem_ctrls.writePktSize::0                    0                       # Write request sizes (log2)
system.mem_ctrls.writePktSize::1                    0                       # Write request sizes (log2)
system.mem_ctrls.writePktSize::2                    0                       # Write request sizes (log2)
system.mem_ctrls.writePktSize::3                    0                       # Write request sizes (log2)
[...]
system.mem_ctrls.dram.bw_read::.cpu.data      3386700                       # Total read bandwidth from this memory (bytes/s)
system.mem_ctrls.dram.bw_read::total          4436042                       # Total read bandwidth from this memory (bytes/s)
system.mem_ctrls.dram.bw_inst_read::.cpu.inst      1049343                       # Instruction read bandwidth from this memory (bytes/s)
system.mem_ctrls.dram.bw_inst_read::total      1049343                       # Instruction read bandwidth from this memory (bytes/s)
system.mem_ctrls.dram.bw_total::.cpu.inst      1049343                       # Total bandwidth to/from this memory (bytes/s)
system.mem_ctrls.dram.bw_total::.cpu.data      3386700                       # Total bandwidth to/from this memory (bytes/s)
system.mem_ctrls.dram.bw_total::total         4436042                       # Total bandwidth to/from this memory (bytes/s)
system.mem_ctrls.dram.readBursts                 5483                       # Number of DRAM read bursts
system.mem_ctrls.dram.writeBursts                   0                       # Number of DRAM write bursts
system.mem_ctrls.dram.perBankRdBursts::0          252                       # Per bank write bursts
system.mem_ctrls.dram.perBankRdBursts::1          273                       # Per bank write bursts
system.mem_ctrls.dram.perBankRdBursts::2          244                       # Per bank write bursts
system.mem_ctrls.dram.perBankRdBursts::3          403                       # Per bank write bursts
system.mem_ctrls.dram.perBankRdBursts::4          416                       # Per bank write bursts
system.mem_ctrls.dram.perBankRdBursts::5          373                       # Per bank write bursts
system.mem_ctrls.dram.perBankRdBursts::6          377                       # Per bank write bursts
system.mem_ctrls.dram.perBankRdBursts::7          400                       # Per bank write bursts
system.mem_ctrls.dram.perBankRdBursts::8          358                       # Per bank write bursts
system.mem_ctrls.dram.perBankRdBursts::9          290                       # Per bank write bursts
system.mem_ctrls.dram.perBankRdBursts::10          427                       # Per bank write bursts
system.mem_ctrls.dram.perBankRdBursts::11          288                       # Per bank write bursts
system.mem_ctrls.dram.perBankRdBursts::12          311                       # Per bank write bursts
system.mem_ctrls.dram.perBankRdBursts::13          339                       # Per bank write bursts
system.mem_ctrls.dram.perBankRdBursts::14          399                       # Per bank write bursts
system.mem_ctrls.dram.perBankRdBursts::15          333                       # Per bank write bursts
system.mem_ctrls.dram.perBankWrBursts::0            0                       # Per bank write bursts
system.mem_ctrls.dram.perBankWrBursts::1            0                       # Per bank write bursts
system.mem_ctrls.dram.perBankWrBursts::2            0                       # Per bank write bursts
system.mem_ctrls.dram.perBankWrBursts::3            0                       # Per bank write bursts
system.mem_ctrls.dram.perBankWrBursts::4            0                       # Per bank write bursts
system.mem_ctrls.dram.perBankWrBursts::5            0                       # Per bank write bursts
system.mem_ctrls.dram.perBankWrBursts::6            0                       # Per bank write bursts
system.mem_ctrls.dram.perBankWrBursts::7            0                       # Per bank write bursts
system.mem_ctrls.dram.perBankWrBursts::8            0                       # Per bank write bursts
system.mem_ctrls.dram.perBankWrBursts::9            0                       # Per bank write bursts
system.mem_ctrls.dram.perBankWrBursts::10            0                       # Per bank write bursts
system.mem_ctrls.dram.perBankWrBursts::11            0                       # Per bank write bursts
system.mem_ctrls.dram.perBankWrBursts::12            0                       # Per bank write bursts
system.mem_ctrls.dram.perBankWrBursts::13            0                       # Per bank write bursts
system.mem_ctrls.dram.perBankWrBursts::14            0                       # Per bank write bursts
system.mem_ctrls.dram.perBankWrBursts::15            0                       # Per bank write bursts
system.mem_ctrls.dram.totQLat                40897214                       # Total ticks spent queuing
system.mem_ctrls.dram.totBusLat              27415000                       # Total ticks spent in databus transfers
system.mem_ctrls.dram.totMemAccLat          143703464                       # Total ticks spent from burst creation until serviced by the DRAM
system.mem_ctrls.dram.avgQLat                 7458.91                       # Average queueing delay per DRAM burst
system.mem_ctrls.dram.avgBusLat               5000.00                       # Average bus latency per DRAM burst
system.mem_ctrls.dram.avgMemAccLat           26208.91                       # Average memory access latency per DRAM burst
system.mem_ctrls.dram.readRowHits                4233                       # Number of row buffer hits during reads
system.mem_ctrls.dram.writeRowHits                  0                       # Number of row buffer hits during writes
system.mem_ctrls.dram.readRowHitRate            77.20                       # Row buffer hit rate for reads
system.mem_ctrls.dram.writeRowHitRate             nan                       # Row buffer hit rate for writes
system.mem_ctrls.dram.bytesPerActivate::samples         1250                       # Bytes accessed per row activation
system.mem_ctrls.dram.bytesPerActivate::mean   280.729600                       # Bytes accessed per row activation
system.mem_ctrls.dram.bytesPerActivate::gmean   183.586433                       # Bytes accessed per row activation
system.mem_ctrls.dram.bytesPerActivate::stdev   285.978100                       # Bytes accessed per row activation
system.mem_ctrls.dram.bytesPerActivate::0-127          376     30.08%     30.08% # Bytes accessed per row activation
system.mem_ctrls.dram.bytesPerActivate::128-255          367     29.36%     59.44% # Bytes accessed per row activation
system.mem_ctrls.dram.bytesPerActivate::256-383          238     19.04%     78.48% # Bytes accessed per row activation
system.mem_ctrls.dram.bytesPerActivate::384-511           78      6.24%     84.72% # Bytes accessed per row activation
system.mem_ctrls.dram.bytesPerActivate::512-639           23      1.84%     86.56% # Bytes accessed per row activation
system.mem_ctrls.dram.bytesPerActivate::640-767           24      1.92%     88.48% # Bytes accessed per row activation
system.mem_ctrls.dram.bytesPerActivate::768-895           20      1.60%     90.08% # Bytes accessed per row activation
system.mem_ctrls.dram.bytesPerActivate::896-1023           14      1.12%     91.20% # Bytes accessed per row activation
system.mem_ctrls.dram.bytesPerActivate::1024-1151          110      8.80%    100.00% # Bytes accessed per row activation
system.mem_ctrls.dram.bytesPerActivate::total         1250                       # Bytes accessed per row activation
system.mem_ctrls.dram.bytesRead                350912                       # Total number of bytes read from DRAM
system.mem_ctrls.dram.bytesWritten                  0                       # Total number of bytes written to DRAM
system.mem_ctrls.dram.avgRdBW                4.436042                       # Average DRAM read bandwidth in MiBytes/s
system.mem_ctrls.dram.avgWrBW                       0                       # Average DRAM write bandwidth in MiBytes/s
system.mem_ctrls.dram.peakBW                 12800.00                       # Theoretical peak bandwidth in MiByte/s
system.mem_ctrls.dram.busUtil                    0.03                       # Data bus utilization in percentage
system.mem_ctrls.dram.busUtilRead                0.03                       # Data bus utilization in percentage for reads
system.mem_ctrls.dram.busUtilWrite               0.00                       # Data bus utilization in percentage for writes
system.mem_ctrls.dram.pageHitRate               77.20                       # Row buffer hit rate, read and write combined
system.mem_ctrls.dram.power_state.pwrStateResidencyTicks::UNDEFINED  79104743939                       # Cumulative time (in ticks) in various power states
system.mem_ctrls.dram.rank0.actEnergy         4526760                       # Energy for activate commands per rank (pJ)
system.mem_ctrls.dram.rank0.preEnergy         2406030                       # Energy for precharge commands per rank (pJ)
system.mem_ctrls.dram.rank0.readEnergy       19549320                       # Energy for read commands per rank (pJ)
system.mem_ctrls.dram.rank0.writeEnergy             0                       # Energy for write commands per rank (pJ)
system.mem_ctrls.dram.rank0.refreshEnergy 6244127760.000001                       # Energy for refresh commands per rank (pJ)
system.mem_ctrls.dram.rank0.actBackEnergy   1953192780                       # Energy for active background per rank (pJ)
system.mem_ctrls.dram.rank0.preBackEnergy  28731428160                       # Energy for precharge background per rank (pJ)
system.mem_ctrls.dram.rank0.actPowerDownEnergy            0                       # Energy for active power-down per rank (pJ)
system.mem_ctrls.dram.rank0.prePowerDownEnergy            0                       # Energy for precharge power-down per rank (pJ)
system.mem_ctrls.dram.rank0.selfRefreshEnergy            0                       # Energy for self refresh per rank (pJ)
system.mem_ctrls.dram.rank0.totalEnergy   36955230810                       # Total energy per rank (pJ)
system.mem_ctrls.dram.rank0.averagePower   467.168326                       # Core power per rank (mW)
system.mem_ctrls.dram.rank0.totalIdleTime            0                       # Total Idle time Per DRAM Rank
system.mem_ctrls.dram.rank0.pwrStateTime::IDLE  74677048966                       # Time in different power states
system.mem_ctrls.dram.rank0.pwrStateTime::REF   2641340000                       # Time in different power states
system.mem_ctrls.dram.rank0.pwrStateTime::SREF            0                       # Time in different power states
system.mem_ctrls.dram.rank0.pwrStateTime::PRE_PDN            0                       # Time in different power states
system.mem_ctrls.dram.rank0.pwrStateTime::ACT   1786354973                       # Time in different power states
system.mem_ctrls.dram.rank0.pwrStateTime::ACT_PDN            0                       # Time in different power states
system.mem_ctrls.dram.rank1.actEnergy         4398240                       # Energy for activate commands per rank (pJ)
system.mem_ctrls.dram.rank1.preEnergy         2337720                       # Energy for precharge commands per rank (pJ)
system.mem_ctrls.dram.rank1.readEnergy       19599300                       # Energy for read commands per rank (pJ)
system.mem_ctrls.dram.rank1.writeEnergy             0                       # Energy for write commands per rank (pJ)
system.mem_ctrls.dram.rank1.refreshEnergy 6244127760.000001                       # Energy for refresh commands per rank (pJ)
system.mem_ctrls.dram.rank1.actBackEnergy   1900905540                       # Energy for active background per rank (pJ)
system.mem_ctrls.dram.rank1.preBackEnergy  28775459520                       # Energy for precharge background per rank (pJ)
system.mem_ctrls.dram.rank1.actPowerDownEnergy            0                       # Energy for active power-down per rank (pJ)
system.mem_ctrls.dram.rank1.prePowerDownEnergy            0                       # Energy for precharge power-down per rank (pJ)
system.mem_ctrls.dram.rank1.selfRefreshEnergy            0                       # Energy for self refresh per rank (pJ)
system.mem_ctrls.dram.rank1.totalEnergy   36946828080                       # Total energy per rank (pJ)
system.mem_ctrls.dram.rank1.averagePower   467.062103                       # Core power per rank (mW)
system.mem_ctrls.dram.rank1.totalIdleTime            0                       # Total Idle time Per DRAM Rank
system.mem_ctrls.dram.rank1.pwrStateTime::IDLE  74791554970                       # Time in different power states
system.mem_ctrls.dram.rank1.pwrStateTime::REF   2641340000                       # Time in different power states
system.mem_ctrls.dram.rank1.pwrStateTime::SREF            0                       # Time in different power states
system.mem_ctrls.dram.rank1.pwrStateTime::PRE_PDN            0                       # Time in different power states
system.mem_ctrls.dram.rank1.pwrStateTime::ACT   1671848969                       # Time in different power states
system.mem_ctrls.dram.rank1.pwrStateTime::ACT_PDN            0                       # Time in different power states
system.mem_ctrls.power_state.pwrStateResidencyTicks::UNDEFINED  79104743939                       # Cumulative time (in ticks) in various power states
system.membus.trans_dist::ReadResp               1817                       # Transaction distribution
system.membus.trans_dist::ReadExReq              3666                       # Transaction distribution
system.membus.trans_dist::ReadExResp             3666                       # Transaction distribution
system.membus.trans_dist::ReadSharedReq          1817                       # Transaction distribution
system.membus.pkt_count_system.l2.mem_side_port::system.mem_ctrls.port        10966                       # Packet count per connected requestor and responder (bytes)
system.membus.pkt_count::total                  10966                       # Packet count per connected requestor and responder (bytes)
system.membus.pkt_size_system.l2.mem_side_port::system.mem_ctrls.port       350912                       # Cumulative packet size per connected requestor and responder (bytes)
system.membus.pkt_size::total                  350912                       # Cumulative packet size per connected requestor and responder (bytes)
system.membus.snoops                                0                       # Total snoops (count)
system.membus.snoopTraffic                          0                       # Total snoop traffic (bytes)
system.membus.snoop_fanout::samples              5483                       # Request fanout histogram
system.membus.snoop_fanout::mean                    0                       # Request fanout histogram
system.membus.snoop_fanout::stdev                   0                       # Request fanout histogram
system.membus.snoop_fanout::underflows              0      0.00%      0.00% # Request fanout histogram
system.membus.snoop_fanout::0                    5483    100.00%    100.00% # Request fanout histogram
system.membus.snoop_fanout::1                       0      0.00%    100.00% # Request fanout histogram
system.membus.snoop_fanout::overflows               0      0.00%    100.00% # Request fanout histogram
system.membus.snoop_fanout::min_value               0                       # Request fanout histogram
system.membus.snoop_fanout::max_value               0                       # Request fanout histogram
system.membus.snoop_fanout::total                5483                       # Request fanout histogram
system.membus.power_state.pwrStateResidencyTicks::UNDEFINED  79104743939                       # Cumulative time (in ticks) in various power states
system.membus.reqLayer0.occupancy             8163896                       # Layer occupancy (ticks)
system.membus.reqLayer0.utilization               0.0                       # Layer utilization (%)
system.membus.respLayer1.occupancy           29123098                       # Layer occupancy (ticks)
system.membus.respLayer1.utilization              0.0                       # Layer utilization (%)
system.tol2bus.trans_dist::ReadResp             14537                       # Transaction distribution
system.tol2bus.trans_dist::WritebackDirty        61606                       # Transaction distribution
system.tol2bus.trans_dist::WritebackClean         1747                       # Transaction distribution
system.tol2bus.trans_dist::CleanEvict            1824                       # Transaction distribution
system.tol2bus.trans_dist::ReadExReq            52176                       # Transaction distribution
system.tol2bus.trans_dist::ReadExResp           52176                       # Transaction distribution
system.tol2bus.trans_dist::ReadCleanReq          2259                       # Transaction distribution
system.tol2bus.trans_dist::ReadSharedReq        12278                       # Transaction distribution
system.tol2bus.pkt_count_system.cpu.icache.mem_side_port::system.l2.cpu_side_port         6265                       # Packet count per connected requestor and responder (bytes)
system.tol2bus.pkt_count_system.cpu.dcache.mem_side_port::system.l2.cpu_side_port       192338                       # Packet count per connected requestor and responder (bytes)
system.tol2bus.pkt_count::total                198603                       # Packet count per connected requestor and responder (bytes)
system.tol2bus.pkt_size_system.cpu.icache.mem_side_port::system.l2.cpu_side_port       256384                       # Cumulative packet size per connected requestor and responder (bytes)
system.tol2bus.pkt_size_system.cpu.dcache.mem_side_port::system.l2.cpu_side_port      8067840                       # Cumulative packet size per connected requestor and responder (bytes)
system.tol2bus.pkt_size::total                8324224                       # Cumulative packet size per connected requestor and responder (bytes)
system.tol2bus.snoops                               0                       # Total snoops (count)
system.tol2bus.snoopTraffic                         0                       # Total snoop traffic (bytes)
system.tol2bus.snoop_fanout::samples            66713                       # Request fanout histogram
system.tol2bus.snoop_fanout::mean            0.014120                       # Request fanout histogram
system.tol2bus.snoop_fanout::stdev           0.117987                       # Request fanout histogram
system.tol2bus.snoop_fanout::underflows             0      0.00%      0.00% # Request fanout histogram
system.tol2bus.snoop_fanout::0                  65771     98.59%     98.59% # Request fanout histogram
system.tol2bus.snoop_fanout::1                    942      1.41%    100.00% # Request fanout histogram
system.tol2bus.snoop_fanout::2                      0      0.00%    100.00% # Request fanout histogram
system.tol2bus.snoop_fanout::overflows              0      0.00%    100.00% # Request fanout histogram
system.tol2bus.snoop_fanout::min_value              0                       # Request fanout histogram
system.tol2bus.snoop_fanout::max_value              1                       # Request fanout histogram
system.tol2bus.snoop_fanout::total              66713                       # Request fanout histogram
system.tol2bus.power_state.pwrStateResidencyTicks::UNDEFINED  79104743939                       # Cumulative time (in ticks) in various power states
system.tol2bus.reqLayer0.occupancy          172483532                       # Layer occupancy (ticks)
system.tol2bus.reqLayer0.utilization              0.2                       # Layer utilization (%)
system.tol2bus.respLayer0.occupancy           4521591                       # Layer occupancy (ticks)
system.tol2bus.respLayer0.utilization             0.0                       # Layer utilization (%)
system.tol2bus.respLayer1.occupancy         128976450                       # Layer occupancy (ticks)
system.tol2bus.respLayer1.utilization             0.2                       # Layer utilization (%)
system.voltage_domain.voltage                       1                       # Voltage in Volts

---------- End Simulation Statistics   ----------
