
---------- Begin Simulation Statistics ----------
final_tick                                78812860070                       # Number of ticks from beginning of simulation (restored from checkpoints and never reset)
host_inst_rate                                 311523                       # Simulator instruction rate (inst/s)
host_mem_usage                                 674308                       # Number of bytes of host memory used
host_op_rate                                   314958                       # Simulator op (including micro ops) rate (op/s)
host_seconds                                   321.00                       # Real time elapsed on the host
host_tick_rate                              245520037                       # Simulator tick rate (ticks/s)
sim_freq                                 1000000000000                       # Frequency of simulated ticks
sim_insts                                   100000000                       # Number of instructions simulated
sim_ops                                     101102730                       # Number of ops (including micro ops) simulated
sim_seconds                                  0.078813                       # Number of seconds simulated
sim_ticks                                 78812860070                       # Number of ticks simulated
system.cpu.committedInsts                   100000000                       # Number of instructions committed
system.cpu.committedOps                     101102730                       # Number of ops (including micro ops) committed
system.cpu.cpi                               1.181602                       # CPI: cycles per instruction
system.cpu.discardedOps                        971696                       # Number of ops (including micro ops) which were discarded before commit
system.cpu.idleCycles                         2542512                       # Total number of cycles that the object has spent stopped
system.cpu.ipc                               0.846309                       # IPC: instructions per cycle
system.cpu.numCycles                        118160210                       # number of cpu cycles simulated
system.cpu.numFetchSuspends                         0                       # Number of times Execute suspended instruction fetching
system.cpu.numWorkItemsCompleted                    0                       # number of work items this cpu completed
system.cpu.numWorkItemsStarted                      0                       # number of work items this cpu started
system.cpu.op_class_0::No_OpClass                   0      0.00%      0.00% # Class of committed instruction
system.cpu.op_class_0::IntAlu                55115624     54.51%     54.51% # Class of committed instruction
system.cpu.op_class_0::IntMult                 167845      0.17%     54.68% # Class of committed instruction
system.cpu.op_class_0::IntDiv                       0      0.00%     54.68% # Class of committed instruction
system.cpu.op_class_0::FloatAdd                     0      0.00%     54.68% # Class of committed instruction
system.cpu.op_class_0::FloatCmp                     0      0.00%     54.68% # Class of committed instruction
system.cpu.op_class_0::FloatCvt                     0      0.00%     54.68% # Class of committed instruction
system.cpu.op_class_0::FloatMult                    0      0.00%     54.68% # Class of committed instruction
system.cpu.op_class_0::FloatMultAcc                 0      0.00%     54.68% # Class of committed instruction
system.cpu.op_class_0::FloatDiv                     0      0.00%     54.68% # Class of committed instruction
system.cpu.op_class_0::FloatMisc                    0      0.00%     54.68% # Class of committed instruction
system.cpu.op_class_0::FloatSqrt                    0      0.00%     54.68% # Class of committed instruction
system.cpu.op_class_0::SimdAdd                    380      0.00%     54.68% # Class of committed instruction
system.cpu.op_class_0::SimdAddAcc                   0      0.00%     54.68% # Class of committed instruction
system.cpu.op_class_0::SimdAlu                    470      0.00%     54.68% # Class of committed instruction
system.cpu.op_class_0::SimdCmp                    382      0.00%     54.68% # Class of committed instruction
system.cpu.op_class_0::SimdCvt                      0      0.00%     54.68% # Class of committed instruction
system.cpu.op_class_0::SimdMisc                    53      0.00%     54.68% # Class of committed instruction
system.cpu.op_class_0::SimdMult                     0      0.00%     54.68% # Class of committed instruction
system.cpu.op_class_0::SimdMultAcc                  0      0.00%     54.68% # Class of committed instruction
system.cpu.op_class_0::SimdShift                    0      0.00%     54.68% # Class of committed instruction
system.cpu.op_class_0::SimdShiftAcc                 0      0.00%     54.68% # Class of committed instruction
system.cpu.op_class_0::SimdDiv                      0      0.00%     54.68% # Class of committed instruction
system.cpu.op_class_0::SimdSqrt                     0      0.00%     54.68% # Class of committed instruction
system.cpu.op_class_0::SimdFloatAdd            267609      0.26%     54.95% # Class of committed instruction
system.cpu.op_class_0::SimdFloatAlu                 0      0.00%     54.95% # Class of committed instruction
system.cpu.op_class_0::SimdFloatCmp            259630      0.26%     55.20% # Class of committed instruction
system.cpu.op_class_0::SimdFloatCvt            161456      0.16%     55.36% # Class of committed instruction
system.cpu.op_class_0::SimdFloatDiv             54308      0.05%     55.42% # Class of committed instruction
system.cpu.op_class_0::SimdFloatMisc           483618      0.48%     55.90% # Class of committed instruction
system.cpu.op_class_0::SimdFloatMult            33524      0.03%     55.93% # Class of committed instruction
system.cpu.op_class_0::SimdFloatMultAcc         11115      0.01%     55.94% # Class of committed instruction
system.cpu.op_class_0::SimdFloatSqrt                0      0.00%     55.94% # Class of committed instruction
system.cpu.op_class_0::SimdReduceAdd                0      0.00%     55.94% # Class of committed instruction
system.cpu.op_class_0::SimdReduceAlu                0      0.00%     55.94% # Class of committed instruction
system.cpu.op_class_0::SimdReduceCmp                0      0.00%     55.94% # Class of committed instruction
system.cpu.op_class_0::SimdFloatReduceAdd            0      0.00%     55.94% # Class of committed instruction
system.cpu.op_class_0::SimdFloatReduceCmp            0      0.00%     55.94% # Class of committed instruction
system.cpu.op_class_0::SimdAes                      0      0.00%     55.94% # Class of committed instruction
system.cpu.op_class_0::SimdAesMix                   0      0.00%     55.94% # Class of committed instruction
system.cpu.op_class_0::SimdSha1Hash                 0      0.00%     55.94% # Class of committed instruction
system.cpu.op_class_0::SimdSha1Hash2                0      0.00%     55.94% # Class of committed instruction
system.cpu.op_class_0::SimdSha256Hash               0      0.00%     55.94% # Class of committed instruction
system.cpu.op_class_0::SimdSha256Hash2              0      0.00%     55.94% # Class of committed instruction
system.cpu.op_class_0::SimdShaSigma2                0      0.00%     55.94% # Class of committed instruction
system.cpu.op_class_0::SimdShaSigma3                0      0.00%     55.94% # Class of committed instruction
system.cpu.op_class_0::SimdPredAlu                  0      0.00%     55.94% # Class of committed instruction
system.cpu.op_class_0::MemRead               38167611     37.75%     93.69% # Class of committed instruction
system.cpu.op_class_0::MemWrite               6379105      6.31%    100.00% # Class of committed instruction
system.cpu.op_class_0::FloatMemRead                 0      0.00%    100.00% # Class of committed instruction
system.cpu.op_class_0::FloatMemWrite                0      0.00%    100.00% # Class of committed instruction
system.cpu.op_class_0::IprAccess                    0      0.00%    100.00% # Class of committed instruction
system.cpu.op_class_0::InstPrefetch                 0      0.00%    100.00% # Class of committed instruction
system.cpu.op_class_0::total                101102730                       # Class of committed instruction
system.cpu.tickCycles                       115617698                       # Number of cycles that the object actually ticked
system.cpu.workload.numSyscalls                    32                       # Number of system calls
system.membus.snoop_filter.hit_multi_requests            0                       # Number of requests hitting in the snoop filter with multiple (>1) holders of the requested data.
system.membus.snoop_filter.hit_multi_snoops            0                       # Number of snoops hitting in the snoop filter with multiple (>1) holders of the requested data.
system.membus.snoop_filter.hit_single_requests            0                       # Number of requests hitting in the snoop filter with a single holder of the requested data.
system.membus.snoop_filter.hit_single_snoops            0                       # Number of snoops hitting in the snoop filter with a single holder of the requested data.
system.membus.snoop_filter.tot_requests          1611                       # Total number of requests made to the snoop filter.
system.membus.snoop_filter.tot_snoops               0                       # Total number of snoops made to the snoop filter.
system.tol2bus.snoop_filter.hit_multi_requests          820                       # Number of requests hitting in the snoop filter with multiple (>1) holders of the requested data.
system.tol2bus.snoop_filter.hit_multi_snoops            0                       # Number of snoops hitting in the snoop filter with multiple (>1) holders of the requested data.
system.tol2bus.snoop_filter.hit_single_requests        36114                       # Number of requests hitting in the snoop filter with a single holder of the requested data.
system.tol2bus.snoop_filter.hit_single_snoops            0                       # Number of snoops hitting in the snoop filter with a single holder of the requested data.
system.tol2bus.snoop_filter.tot_requests        72594                       # Total number of requests made to the snoop filter.
system.tol2bus.snoop_filter.tot_snoops              0                       # Total number of snoops made to the snoop filter.
system.clk_domain.clock                          1000                       # Clock period in ticks
system.cpu.branchPred.lookups                 6502777                       # Number of BP lookups
system.cpu.branchPred.condPredicted           5094840                       # Number of conditional branches predicted
system.cpu.branchPred.condIncorrect            349156                       # Number of conditional branches incorrect
system.cpu.branchPred.BTBLookups              4085463                       # Number of BTB lookups
system.cpu.branchPred.BTBHits                 4077966                       # Number of BTB hits
system.cpu.branchPred.BTBHitPct             99.816496                       # BTB Hit Percentage
system.cpu.branchPred.RASUsed                  312566                       # Number of times the RAS was used to get a target.
system.cpu.branchPred.RASIncorrect                  4                       # Number of incorrect RAS predictions.
system.cpu.branchPred.indirectLookups          675707                       # Number of indirect predictor lookups.
system.cpu.branchPred.indirectHits             102890                       # Number of indirect target hits.
system.cpu.branchPred.indirectMisses           572817                       # Number of indirect misses.
system.cpu.branchPred.indirectMispredicted        37441                       # Number of mispredicted indirect branches.
system.cpu.dcache.demand_hits::.cpu.data     43865384                       # number of demand (read+write) hits
system.cpu.dcache.demand_hits::total         43865384                       # number of demand (read+write) hits
system.cpu.dcache.overall_hits::.cpu.data     43874041                       # number of overall hits
system.cpu.dcache.overall_hits::total        43874041                       # number of overall hits
system.cpu.dcache.demand_misses::.cpu.data        31540                       # number of demand (read+write) misses
system.cpu.dcache.demand_misses::total          31540                       # number of demand (read+write) misses
system.cpu.dcache.overall_misses::.cpu.data        31597                       # number of overall misses
system.cpu.dcache.overall_misses::total         31597                       # number of overall misses
system.cpu.dcache.demand_miss_latency::.cpu.data    757513901                       # number of demand (read+write) miss cycles
system.cpu.dcache.demand_miss_latency::total    757513901                       # number of demand (read+write) miss cycles
system.cpu.dcache.overall_miss_latency::.cpu.data    757513901                       # number of overall miss cycles
system.cpu.dcache.overall_miss_latency::total    757513901                       # number of overall miss cycles
system.cpu.dcache.demand_accesses::.cpu.data     43896924                       # number of demand (read+write) accesses
system.cpu.dcache.demand_accesses::total     43896924                       # number of demand (read+write) accesses
system.cpu.dcache.overall_accesses::.cpu.data     43905638                       # number of overall (read+write) accesses
system.cpu.dcache.overall_accesses::total     43905638                       # number of overall (read+write) accesses
system.cpu.dcache.demand_miss_rate::.cpu.data     0.000719                       # miss rate for demand accesses
system.cpu.dcache.demand_miss_rate::total     0.000719                       # miss rate for demand accesses
system.cpu.dcache.overall_miss_rate::.cpu.data     0.000720                       # miss rate for overall accesses
system.cpu.dcache.overall_miss_rate::total     0.000720                       # miss rate for overall accesses
system.cpu.dcache.demand_avg_miss_latency::.cpu.data 24017.561858                       # average overall miss latency
system.cpu.dcache.demand_avg_miss_latency::total 24017.561858                       # average overall miss latency
system.cpu.dcache.overall_avg_miss_latency::.cpu.data 23974.234927                       # average overall miss latency
system.cpu.dcache.overall_avg_miss_latency::total 23974.234927                       # average overall miss latency
system.cpu.dcache.blocked_cycles::no_mshrs            0                       # number of cycles access was blocked
system.cpu.dcache.blocked_cycles::no_targets            0                       # number of cycles access was blocked
system.cpu.dcache.blocked::no_mshrs                 0                       # number of cycles access was blocked
system.cpu.dcache.blocked::no_targets               0                       # number of cycles access was blocked
system.cpu.dcache.avg_blocked_cycles::no_mshrs          nan                       # average number of cycles each access was blocked
system.cpu.dcache.avg_blocked_cycles::no_targets          nan                       # average number of cycles each access was blocked
system.cpu.dcache.writebacks::.writebacks        28614                       # number of writebacks
system.cpu.dcache.writebacks::total             28614                       # number of writebacks
system.cpu.dcache.demand_mshr_hits::.cpu.data         1703                       # number of demand (read+write) MSHR hits
system.cpu.dcache.demand_mshr_hits::total         1703                       # number of demand (read+write) MSHR hits
system.cpu.dcache.overall_mshr_hits::.cpu.data         1703                       # number of overall MSHR hits
system.cpu.dcache.overall_mshr_hits::total         1703                       # number of overall MSHR hits
system.cpu.dcache.demand_mshr_misses::.cpu.data        29837                       # number of demand (read+write) MSHR misses
system.cpu.dcache.demand_mshr_misses::total        29837                       # number of demand (read+write) MSHR misses
system.cpu.dcache.overall_mshr_misses::.cpu.data        29866                       # number of overall MSHR misses
system.cpu.dcache.overall_mshr_misses::total        29866                       # number of overall MSHR misses
system.cpu.dcache.demand_mshr_miss_latency::.cpu.data    630088887                       # number of demand (read+write) MSHR miss cycles
system.cpu.dcache.demand_mshr_miss_latency::total    630088887                       # number of demand (read+write) MSHR miss cycles
system.cpu.dcache.overall_mshr_miss_latency::.cpu.data    633210447                       # number of overall MSHR miss cycles
system.cpu.dcache.overall_mshr_miss_latency::total    633210447                       # number of overall MSHR miss cycles
system.cpu.dcache.demand_mshr_miss_rate::.cpu.data     0.000680                       # mshr miss rate for demand accesses
system.cpu.dcache.demand_mshr_miss_rate::total     0.000680                       # mshr miss rate for demand accesses
system.cpu.dcache.overall_mshr_miss_rate::.cpu.data     0.000680                       # mshr miss rate for overall accesses
system.cpu.dcache.overall_mshr_miss_rate::total     0.000680                       # mshr miss rate for overall accesses
system.cpu.dcache.demand_avg_mshr_miss_latency::.cpu.data 21117.702416                       # average overall mshr miss latency
system.cpu.dcache.demand_avg_mshr_miss_latency::total 21117.702416                       # average overall mshr miss latency
system.cpu.dcache.overall_avg_mshr_miss_latency::.cpu.data 21201.715898                       # average overall mshr miss latency
system.cpu.dcache.overall_avg_mshr_miss_latency::total 21201.715898                       # average overall mshr miss latency
system.cpu.dcache.replacements                  29610                       # number of replacements
system.cpu.dcache.ReadReq_hits::.cpu.data     37561068                       # number of ReadReq hits
system.cpu.dcache.ReadReq_hits::total        37561068                       # number of ReadReq hits
system.cpu.dcache.ReadReq_misses::.cpu.data        15067                       # number of ReadReq misses
system.cpu.dcache.ReadReq_misses::total         15067                       # number of ReadReq misses
system.cpu.dcache.ReadReq_miss_latency::.cpu.data    324005922                       # number of ReadReq miss cycles
system.cpu.dcache.ReadReq_miss_latency::total    324005922                       # number of ReadReq miss cycles
system.cpu.dcache.ReadReq_accesses::.cpu.data     37576135                       # number of ReadReq accesses(hits+misses)
system.cpu.dcache.ReadReq_accesses::total     37576135                       # number of ReadReq accesses(hits+misses)
system.cpu.dcache.ReadReq_miss_rate::.cpu.data     0.000401                       # miss rate for ReadReq accesses
system.cpu.dcache.ReadReq_miss_rate::total     0.000401                       # miss rate for ReadReq accesses
system.cpu.dcache.ReadReq_avg_miss_latency::.cpu.data 21504.342072                       # average ReadReq miss latency
system.cpu.dcache.ReadReq_avg_miss_latency::total 21504.342072                       # average ReadReq miss latency
system.cpu.dcache.ReadReq_mshr_hits::.cpu.data          253                       # number of ReadReq MSHR hits
system.cpu.dcache.ReadReq_mshr_hits::total          253                       # number of ReadReq MSHR hits
system.cpu.dcache.ReadReq_mshr_misses::.cpu.data        14814                       # number of ReadReq MSHR misses
system.cpu.dcache.ReadReq_mshr_misses::total        14814                       # number of ReadReq MSHR misses
system.cpu.dcache.ReadReq_mshr_miss_latency::.cpu.data    298745298                       # number of ReadReq MSHR miss cycles
system.cpu.dcache.ReadReq_mshr_miss_latency::total    298745298                       # number of ReadReq MSHR miss cycles
system.cpu.dcache.ReadReq_mshr_miss_rate::.cpu.data     0.000394                       # mshr miss rate for ReadReq accesses
system.cpu.dcache.ReadReq_mshr_miss_rate::total     0.000394                       # mshr miss rate for ReadReq accesses
system.cpu.dcache.ReadReq_avg_mshr_miss_latency::.cpu.data 20166.416768                       # average ReadReq mshr miss latency
system.cpu.dcache.ReadReq_avg_mshr_miss_latency::total 20166.416768                       # average ReadReq mshr miss latency
system.cpu.dcache.WriteReq_hits::.cpu.data      6304316                       # number of WriteReq hits
system.cpu.dcache.WriteReq_hits::total        6304316                       # number of WriteReq hits
system.cpu.dcache.WriteReq_misses::.cpu.data        16473                       # number of WriteReq misses
system.cpu.dcache.WriteReq_misses::total        16473                       # number of WriteReq misses
system.cpu.dcache.WriteReq_miss_latency::.cpu.data    433507979                       # number of WriteReq miss cycles
system.cpu.dcache.WriteReq_miss_latency::total    433507979                       # number of WriteReq miss cycles
system.cpu.dcache.WriteReq_accesses::.cpu.data      6320789                       # number of WriteReq accesses(hits+misses)
system.cpu.dcache.WriteReq_accesses::total      6320789                       # number of WriteReq accesses(hits+misses)
system.cpu.dcache.WriteReq_miss_rate::.cpu.data     0.002606                       # miss rate for WriteReq accesses
system.cpu.dcache.WriteReq_miss_rate::total     0.002606                       # miss rate for WriteReq accesses
system.cpu.dcache.WriteReq_avg_miss_latency::.cpu.data 26316.273842                       # average WriteReq miss latency
system.cpu.dcache.WriteReq_avg_miss_latency::total 26316.273842                       # average WriteReq miss latency
system.cpu.dcache.WriteReq_mshr_hits::.cpu.data         1450                       # number of WriteReq MSHR hits
system.cpu.dcache.WriteReq_mshr_hits::total         1450                       # number of WriteReq MSHR hits
system.cpu.dcache.WriteReq_mshr_misses::.cpu.data        15023                       # number of WriteReq MSHR misses
system.cpu.dcache.WriteReq_mshr_misses::total        15023                       # number of WriteReq MSHR misses
system.cpu.dcache.WriteReq_mshr_miss_latency::.cpu.data    331343589                       # number of WriteReq MSHR miss cycles
system.cpu.dcache.WriteReq_mshr_miss_latency::total    331343589                       # number of WriteReq MSHR miss cycles
system.cpu.dcache.WriteReq_mshr_miss_rate::.cpu.data     0.002377                       # mshr miss rate for WriteReq accesses
system.cpu.dcache.WriteReq_mshr_miss_rate::total     0.002377                       # mshr miss rate for WriteReq accesses
system.cpu.dcache.WriteReq_avg_mshr_miss_latency::.cpu.data 22055.753778                       # average WriteReq mshr miss latency
system.cpu.dcache.WriteReq_avg_mshr_miss_latency::total 22055.753778                       # average WriteReq mshr miss latency
system.cpu.dcache.SoftPFReq_hits::.cpu.data         8657                       # number of SoftPFReq hits
system.cpu.dcache.SoftPFReq_hits::total          8657                       # number of SoftPFReq hits
system.cpu.dcache.SoftPFReq_misses::.cpu.data           57                       # number of SoftPFReq misses
system.cpu.dcache.SoftPFReq_misses::total           57                       # number of SoftPFReq misses
system.cpu.dcache.SoftPFReq_accesses::.cpu.data         8714                       # number of SoftPFReq accesses(hits+misses)
system.cpu.dcache.SoftPFReq_accesses::total         8714                       # number of SoftPFReq accesses(hits+misses)
system.cpu.dcache.SoftPFReq_miss_rate::.cpu.data     0.006541                       # miss rate for SoftPFReq accesses
system.cpu.dcache.SoftPFReq_miss_rate::total     0.006541                       # miss rate for SoftPFReq accesses
system.cpu.dcache.SoftPFReq_mshr_misses::.cpu.data           29                       # number of SoftPFReq MSHR misses
system.cpu.dcache.SoftPFReq_mshr_misses::total           29                       # number of SoftPFReq MSHR misses
system.cpu.dcache.SoftPFReq_mshr_miss_latency::.cpu.data      3121560                       # number of SoftPFReq MSHR miss cycles
system.cpu.dcache.SoftPFReq_mshr_miss_latency::total      3121560                       # number of SoftPFReq MSHR miss cycles
system.cpu.dcache.SoftPFReq_mshr_miss_rate::.cpu.data     0.003328                       # mshr miss rate for SoftPFReq accesses
system.cpu.dcache.SoftPFReq_mshr_miss_rate::total     0.003328                       # mshr miss rate for SoftPFReq accesses
system.cpu.dcache.SoftPFReq_avg_mshr_miss_latency::.cpu.data       107640                       # average SoftPFReq mshr miss latency
system.cpu.dcache.SoftPFReq_avg_mshr_miss_latency::total       107640                       # average SoftPFReq mshr miss latency
system.cpu.dcache.LoadLockedReq_hits::.cpu.data          166                       # number of LoadLockedReq hits
system.cpu.dcache.LoadLockedReq_hits::total          166                       # number of LoadLockedReq hits
system.cpu.dcache.LoadLockedReq_accesses::.cpu.data          166                       # number of LoadLockedReq accesses(hits+misses)
system.cpu.dcache.LoadLockedReq_accesses::total          166                       # number of LoadLockedReq accesses(hits+misses)
system.cpu.dcache.StoreCondReq_hits::.cpu.data          166                       # number of StoreCondReq hits
system.cpu.dcache.StoreCondReq_hits::total          166                       # number of StoreCondReq hits
system.cpu.dcache.StoreCondReq_accesses::.cpu.data          166                       # number of StoreCondReq accesses(hits+misses)
system.cpu.dcache.StoreCondReq_accesses::total          166                       # number of StoreCondReq accesses(hits+misses)
system.cpu.dcache.power_state.pwrStateResidencyTicks::UNDEFINED  78812860070                       # Cumulative time (in ticks) in various power states
system.cpu.dcache.tags.tagsinuse           254.597652                       # Cycle average of tags in use
system.cpu.dcache.tags.total_refs            43904239                       # Total number of references to valid blocks.
system.cpu.dcache.tags.sampled_refs             29866                       # Sample count of references to valid blocks.
system.cpu.dcache.tags.avg_refs           1470.040816                       # Average number of references to valid blocks.
system.cpu.dcache.tags.warmup_cycle            229448                       # Cycle when the warmup percentage was hit.
system.cpu.dcache.tags.occ_blocks::.cpu.data   254.597652                       # Average occupied blocks per requestor
system.cpu.dcache.tags.occ_percent::.cpu.data     0.994522                       # Average percentage of cache occupancy
system.cpu.dcache.tags.occ_percent::total     0.994522                       # Average percentage of cache occupancy
system.cpu.dcache.tags.occ_task_id_blocks::1024          256                       # Occupied blocks per task id
system.cpu.dcache.tags.age_task_id_blocks_1024::0            2                       # Occupied blocks per task id
system.cpu.dcache.tags.age_task_id_blocks_1024::1           24                       # Occupied blocks per task id
system.cpu.dcache.tags.age_task_id_blocks_1024::2          148                       # Occupied blocks per task id
system.cpu.dcache.tags.age_task_id_blocks_1024::3           79                       # Occupied blocks per task id
system.cpu.dcache.tags.age_task_id_blocks_1024::4            3                       # Occupied blocks per task id
system.cpu.dcache.tags.occ_task_id_percent::1024            1                       # Percentage of cache occupancy per task id
system.cpu.dcache.tags.tag_accesses          87841806                       # Number of tag accesses
system.cpu.dcache.tags.data_accesses         87841806                       # Number of data accesses
system.cpu.dcache.tags.power_state.pwrStateResidencyTicks::UNDEFINED  78812860070                       # Cumulative time (in ticks) in various power states
system.cpu.dtb.instHits                             0                       # ITB inst hits
system.cpu.dtb.instMisses                           0                       # ITB inst misses
system.cpu.dtb.readHits                             0                       # DTB read hits
system.cpu.dtb.readMisses                           0                       # DTB read misses
system.cpu.dtb.writeHits                            0                       # DTB write hits
system.cpu.dtb.writeMisses                          0                       # DTB write misses
system.cpu.dtb.inserts                              0                       # Number of times an entry is inserted into the TLB
system.cpu.dtb.flushTlb                             0                       # Number of times complete TLB was flushed
system.cpu.dtb.flushTlbMva                          0                       # Number of times TLB was flushed by MVA
system.cpu.dtb.flushTlbMvaAsid                      0                       # Number of times TLB was flushed by MVA & ASID
system.cpu.dtb.flushTlbAsid                         0                       # Number of times TLB was flushed by ASID
system.cpu.dtb.flushedEntries                       0                       # Number of entries that have been flushed from TLB
system.cpu.dtb.alignFaults                          0                       # Number of TLB faults due to alignment restrictions
system.cpu.dtb.prefetchFaults                       0                       # Number of TLB faults due to prefetch
system.cpu.dtb.domainFaults                         0                       # Number of TLB faults due to domain restrictions
system.cpu.dtb.permsFaults                          0                       # Number of TLB faults due to permissions restrictions
system.cpu.dtb.readAccesses                         0                       # DTB read accesses
system.cpu.dtb.writeAccesses                        0                       # DTB write accesses
system.cpu.dtb.instAccesses                         0                       # ITB inst accesses
system.cpu.dtb.hits                                 0                       # Total TLB (inst and data) hits
system.cpu.dtb.misses                               0                       # Total TLB (inst and data) misses
system.cpu.dtb.accesses                             0                       # Total TLB (inst and data) accesses
system.cpu.dtb.stage2_mmu.stage2_tlb.instHits            0                       # ITB inst hits
system.cpu.dtb.stage2_mmu.stage2_tlb.instMisses            0                       # ITB inst misses
system.cpu.dtb.stage2_mmu.stage2_tlb.readHits            0                       # DTB read hits
system.cpu.dtb.stage2_mmu.stage2_tlb.readMisses            0                       # DTB read misses
system.cpu.dtb.stage2_mmu.stage2_tlb.writeHits            0                       # DTB write hits
system.cpu.dtb.stage2_mmu.stage2_tlb.writeMisses            0                       # DTB write misses
system.cpu.dtb.stage2_mmu.stage2_tlb.inserts            0                       # Number of times an entry is inserted into the TLB
system.cpu.dtb.stage2_mmu.stage2_tlb.flushTlb            0                       # Number of times complete TLB was flushed
system.cpu.dtb.stage2_mmu.stage2_tlb.flushTlbMva            0                       # Number of times TLB was flushed by MVA
system.cpu.dtb.stage2_mmu.stage2_tlb.flushTlbMvaAsid            0                       # Number of times TLB was flushed by MVA & ASID
system.cpu.dtb.stage2_mmu.stage2_tlb.flushTlbAsid            0                       # Number of times TLB was flushed by ASID
system.cpu.dtb.stage2_mmu.stage2_tlb.flushedEntries            0                       # Number of entries that have been flushed from TLB
system.cpu.dtb.stage2_mmu.stage2_tlb.alignFaults            0                       # Number of TLB faults due to alignment restrictions
system.cpu.dtb.stage2_mmu.stage2_tlb.prefetchFaults            0                       # Number of TLB faults due to prefetch
system.cpu.dtb.stage2_mmu.stage2_tlb.domainFaults            0                       # Number of TLB faults due to domain restrictions
system.cpu.dtb.stage2_mmu.stage2_tlb.permsFaults            0                       # Number of TLB faults due to permissions restrictions
system.cpu.dtb.stage2_mmu.stage2_tlb.readAccesses            0                       # DTB read accesses
system.cpu.dtb.stage2_mmu.stage2_tlb.writeAccesses            0                       # DTB write accesses
system.cpu.dtb.stage2_mmu.stage2_tlb.instAccesses            0                       # ITB inst accesses
system.cpu.dtb.stage2_mmu.stage2_tlb.hits            0                       # Total TLB (inst and data) hits
system.cpu.dtb.stage2_mmu.stage2_tlb.misses            0                       # Total TLB (inst and data) misses
system.cpu.dtb.stage2_mmu.stage2_tlb.accesses            0                       # Total TLB (inst and data) accesses
system.cpu.dtb.stage2_mmu.stage2_tlb.walker.walks            0                       # Table walker walks requested
system.cpu.dtb.stage2_mmu.stage2_tlb.walker.requestOrigin_Requested::Data            0                       # Table walker requests started/completed, data/inst
system.cpu.dtb.stage2_mmu.stage2_tlb.walker.requestOrigin_Requested::Inst            0                       # Table walker requests started/completed, data/inst
system.cpu.dtb.stage2_mmu.stage2_tlb.walker.requestOrigin_Requested::total            0                       # Table walker requests started/completed, data/inst
system.cpu.dtb.stage2_mmu.stage2_tlb.walker.requestOrigin_Completed::Data            0                       # Table walker requests started/completed, data/inst
system.cpu.dtb.stage2_mmu.stage2_tlb.walker.requestOrigin_Completed::Inst            0                       # Table walker requests started/completed, data/inst
system.cpu.dtb.stage2_mmu.stage2_tlb.walker.requestOrigin_Completed::total            0                       # Table walker requests started/completed, data/inst
system.cpu.dtb.stage2_mmu.stage2_tlb.walker.requestOrigin::total            0                       # Table walker requests started/completed, data/inst
system.cpu.dtb.stage2_mmu.stage2_tlb.walker.power_state.pwrStateResidencyTicks::UNDEFINED  78812860070                       # Cumulative time (in ticks) in various power states
system.cpu.dtb.walker.walks                         0                       # Table walker walks requested
system.cpu.dtb.walker.requestOrigin_Requested::Data            0                       # Table walker requests started/completed, data/inst
system.cpu.dtb.walker.requestOrigin_Requested::Inst            0                       # Table walker requests started/completed, data/inst
system.cpu.dtb.walker.requestOrigin_Requested::total            0                       # Table walker requests started/completed, data/inst
system.cpu.dtb.walker.requestOrigin_Completed::Data            0                       # Table walker requests started/completed, data/inst
system.cpu.dtb.walker.requestOrigin_Completed::Inst            0                       # Table walker requests started/completed, data/inst
system.cpu.dtb.walker.requestOrigin_Completed::total            0                       # Table walker requests started/completed, data/inst
system.cpu.dtb.walker.requestOrigin::total            0                       # Table walker requests started/completed, data/inst
system.cpu.dtb.walker.power_state.pwrStateResidencyTicks::UNDEFINED  78812860070                       # Cumulative time (in ticks) in various power states
system.cpu.fetch2.intInstructions            48925829                       # Number of integer instructions successfully decoded
system.cpu.fetch2.fpInstructions                    0                       # Number of floating point instructions successfully decoded
system.cpu.fetch2.vecInstructions                   0                       # Number of SIMD instructions successfully decoded
system.cpu.fetch2.loadInstructions           40583478                       # Number of memory load instructions successfully decoded
system.cpu.fetch2.storeInstructions           6266770                       # Number of memory store instructions successfully decoded
system.cpu.fetch2.amoInstructions                   0                       # Number of memory atomic instructions successfully decoded
system.cpu.icache.demand_hits::.cpu.inst     14262722                       # number of demand (read+write) hits
system.cpu.icache.demand_hits::total         14262722                       # number of demand (read+write) hits
system.cpu.icache.overall_hits::.cpu.inst     14262722                       # number of overall hits
system.cpu.icache.overall_hits::total        14262722                       # number of overall hits
system.cpu.icache.demand_misses::.cpu.inst         6623                       # number of demand (read+write) misses
system.cpu.icache.demand_misses::total           6623                       # number of demand (read+write) misses
system.cpu.icache.overall_misses::.cpu.inst         6623                       # number of overall misses
system.cpu.icache.overall_misses::total          6623                       # number of overall misses
system.cpu.icache.demand_miss_latency::.cpu.inst    167517717                       # number of demand (read+write) miss cycles
system.cpu.icache.demand_miss_latency::total    167517717                       # number of demand (read+write) miss cycles
system.cpu.icache.overall_miss_latency::.cpu.inst    167517717                       # number of overall miss cycles
system.cpu.icache.overall_miss_latency::total    167517717                       # number of overall miss cycles
system.cpu.icache.demand_accesses::.cpu.inst     14269345                       # number of demand (read+write) accesses
system.cpu.icache.demand_accesses::total     14269345                       # number of demand (read+write) accesses
system.cpu.icache.overall_accesses::.cpu.inst     14269345                       # number of overall (read+write) accesses
system.cpu.icache.overall_accesses::total     14269345                       # number of overall (read+write) accesses
system.cpu.icache.demand_miss_rate::.cpu.inst     0.000464                       # miss rate for demand accesses
system.cpu.icache.demand_miss_rate::total     0.000464                       # miss rate for demand accesses
system.cpu.icache.overall_miss_rate::.cpu.inst     0.000464                       # miss rate for overall accesses
system.cpu.icache.overall_miss_rate::total     0.000464                       # miss rate for overall accesses
system.cpu.icache.demand_avg_miss_latency::.cpu.inst 25293.328854                       # average overall miss latency
system.cpu.icache.demand_avg_miss_latency::total 25293.328854                       # average overall miss latency
system.cpu.icache.overall_avg_miss_latency::.cpu.inst 25293.328854                       # average overall miss latency
system.cpu.icache.overall_avg_miss_latency::total 25293.328854                       # average overall miss latency
system.cpu.icache.blocked_cycles::no_mshrs            0                       # number of cycles access was blocked
system.cpu.icache.blocked_cycles::no_targets            0                       # number of cycles access was blocked
system.cpu.icache.blocked::no_mshrs                 0                       # number of cycles access was blocked
system.cpu.icache.blocked::no_targets               0                       # number of cycles access was blocked
system.cpu.icache.avg_blocked_cycles::no_mshrs          nan                       # average number of cycles each access was blocked
system.cpu.icache.avg_blocked_cycles::no_targets          nan                       # average number of cycles each access was blocked
system.cpu.icache.writebacks::.writebacks         6495                       # number of writebacks
system.cpu.icache.writebacks::total              6495                       # number of writebacks
system.cpu.icache.demand_mshr_misses::.cpu.inst         6623                       # number of demand (read+write) MSHR misses
system.cpu.icache.demand_mshr_misses::total         6623                       # number of demand (read+write) MSHR misses
system.cpu.icache.overall_mshr_misses::.cpu.inst         6623                       # number of overall MSHR misses
system.cpu.icache.overall_mshr_misses::total         6623                       # number of overall MSHR misses
system.cpu.icache.demand_mshr_miss_latency::.cpu.inst    158682635                       # number of demand (read+write) MSHR miss cycles
system.cpu.icache.demand_mshr_miss_latency::total    158682635                       # number of demand (read+write) MSHR miss cycles
system.cpu.icache.overall_mshr_miss_latency::.cpu.inst    158682635                       # number of overall MSHR miss cycles
system.cpu.icache.overall_mshr_miss_latency::total    158682635                       # number of overall MSHR miss cycles
system.cpu.icache.demand_mshr_miss_rate::.cpu.inst     0.000464                       # mshr miss rate for demand accesses
system.cpu.icache.demand_mshr_miss_rate::total     0.000464                       # mshr miss rate for demand accesses
system.cpu.icache.overall_mshr_miss_rate::.cpu.inst     0.000464                       # mshr miss rate for overall accesses
system.cpu.icache.overall_mshr_miss_rate::total     0.000464                       # mshr miss rate for overall accesses
system.cpu.icache.demand_avg_mshr_miss_latency::.cpu.inst 23959.328854                       # average overall mshr miss latency
system.cpu.icache.demand_avg_mshr_miss_latency::total 23959.328854                       # average overall mshr miss latency
system.cpu.icache.overall_avg_mshr_miss_latency::.cpu.inst 23959.328854                       # average overall mshr miss latency
system.cpu.icache.overall_avg_mshr_miss_latency::total 23959.328854                       # average overall mshr miss latency
system.cpu.icache.replacements                   6495                       # number of replacements
system.cpu.icache.ReadReq_hits::.cpu.inst     14262722                       # number of ReadReq hits
system.cpu.icache.ReadReq_hits::total        14262722                       # number of ReadReq hits
system.cpu.icache.ReadReq_misses::.cpu.inst         6623                       # number of ReadReq misses
system.cpu.icache.ReadReq_misses::total          6623                       # number of ReadReq misses
system.cpu.icache.ReadReq_miss_latency::.cpu.inst    167517717                       # number of ReadReq miss cycles
system.cpu.icache.ReadReq_miss_latency::total    167517717                       # number of ReadReq miss cycles
system.cpu.icache.ReadReq_accesses::.cpu.inst     14269345                       # number of ReadReq accesses(hits+misses)
system.cpu.icache.ReadReq_accesses::total     14269345                       # number of ReadReq accesses(hits+misses)
system.cpu.icache.ReadReq_miss_rate::.cpu.inst     0.000464                       # miss rate for ReadReq accesses
system.cpu.icache.ReadReq_miss_rate::total     0.000464                       # miss rate for ReadReq accesses
system.cpu.icache.ReadReq_avg_miss_latency::.cpu.inst 25293.328854                       # average ReadReq miss latency
system.cpu.icache.ReadReq_avg_miss_latency::total 25293.328854                       # average ReadReq miss latency
system.cpu.icache.ReadReq_mshr_misses::.cpu.inst         6623                       # number of ReadReq MSHR misses
system.cpu.icache.ReadReq_mshr_misses::total         6623                       # number of ReadReq MSHR misses
system.cpu.icache.ReadReq_mshr_miss_latency::.cpu.inst    158682635                       # number of ReadReq MSHR miss cycles
system.cpu.icache.ReadReq_mshr_miss_latency::total    158682635                       # number of ReadReq MSHR miss cycles
system.cpu.icache.ReadReq_mshr_miss_rate::.cpu.inst     0.000464                       # mshr miss rate for ReadReq accesses
system.cpu.icache.ReadReq_mshr_miss_rate::total     0.000464                       # mshr miss rate for ReadReq accesses
system.cpu.icache.ReadReq_avg_mshr_miss_latency::.cpu.inst 23959.328854                       # average ReadReq mshr miss latency
system.cpu.icache.ReadReq_avg_mshr_miss_latency::total 23959.328854                       # average ReadReq mshr miss latency
system.cpu.icache.power_state.pwrStateResidencyTicks::UNDEFINED  78812860070                       # Cumulative time (in ticks) in various power states
system.cpu.icache.tags.tagsinuse           127.970845                       # Cycle average of tags in use
system.cpu.icache.tags.total_refs            14269345                       # Total number of references to valid blocks.
system.cpu.icache.tags.sampled_refs              6623                       # Sample count of references to valid blocks.
system.cpu.icache.tags.avg_refs           2154.513815                       # Average number of references to valid blocks.
system.cpu.icache.tags.warmup_cycle            109388                       # Cycle when the warmup percentage was hit.
system.cpu.icache.tags.occ_blocks::.cpu.inst   127.970845                       # Average occupied blocks per requestor
system.cpu.icache.tags.occ_percent::.cpu.inst     0.999772                       # Average percentage of cache occupancy
system.cpu.icache.tags.occ_percent::total     0.999772                       # Average percentage of cache occupancy
system.cpu.icache.tags.occ_task_id_blocks::1024          128                       # Occupied blocks per task id
system.cpu.icache.tags.age_task_id_blocks_1024::2           12                       # Occupied blocks per task id
system.cpu.icache.tags.age_task_id_blocks_1024::3            8                       # Occupied blocks per task id
system.cpu.icache.tags.age_task_id_blocks_1024::4          108                       # Occupied blocks per task id
system.cpu.icache.tags.occ_task_id_percent::1024            1                       # Percentage of cache occupancy per task id
system.cpu.icache.tags.tag_accesses          28545313                       # Number of tag accesses
system.cpu.icache.tags.data_accesses         28545313                       # Number of data accesses
system.cpu.icache.tags.power_state.pwrStateResidencyTicks::UNDEFINED  78812860070                       # Cumulative time (in ticks) in various power states
system.cpu.itb.instHits                             0                       # ITB inst hits
system.cpu.itb.instMisses                           0                       # ITB inst misses
system.cpu.itb.readHits                             0                       # DTB read hits
system.cpu.itb.readMisses                           0                       # DTB read misses
system.cpu.itb.writeHits                            0                       # DTB write hits
system.cpu.itb.writeMisses                          0                       # DTB write misses
system.cpu.itb.inserts                              0                       # Number of times an entry is inserted into the TLB
system.cpu.itb.flushTlb                             0                       # Number of times complete TLB was flushed
system.cpu.itb.flushTlbMva                          0                       # Number of times TLB was flushed by MVA
system.cpu.itb.flushTlbMvaAsid                      0                       # Number of times TLB was flushed by MVA & ASID
system.cpu.itb.flushTlbAsid                         0                       # Number of times TLB was flushed by ASID
system.cpu.itb.flushedEntries                       0                       # Number of entries that have been flushed from TLB
system.cpu.itb.alignFaults                          0                       # Number of TLB faults due to alignment restrictions
system.cpu.itb.prefetchFaults                       0                       # Number of TLB faults due to prefetch
system.cpu.itb.domainFaults                         0                       # Number of TLB faults due to domain restrictions
system.cpu.itb.permsFaults                          0                       # Number of TLB faults due to permissions restrictions
system.cpu.itb.readAccesses                         0                       # DTB read accesses
system.cpu.itb.writeAccesses                        0                       # DTB write accesses
system.cpu.itb.instAccesses                         0                       # ITB inst accesses
system.cpu.itb.hits                                 0                       # Total TLB (inst and data) hits
system.cpu.itb.misses                               0                       # Total TLB (inst and data) misses
system.cpu.itb.accesses                             0                       # Total TLB (inst and data) accesses
system.cpu.itb.stage2_mmu.stage2_tlb.instHits            0                       # ITB inst hits
system.cpu.itb.stage2_mmu.stage2_tlb.instMisses            0                       # ITB inst misses
system.cpu.itb.stage2_mmu.stage2_tlb.readHits            0                       # DTB read hits
system.cpu.itb.stage2_mmu.stage2_tlb.readMisses            0                       # DTB read misses
system.cpu.itb.stage2_mmu.stage2_tlb.writeHits            0                       # DTB write hits
system.cpu.itb.stage2_mmu.stage2_tlb.writeMisses            0                       # DTB write misses
system.cpu.itb.stage2_mmu.stage2_tlb.inserts            0                       # Number of times an entry is inserted into the TLB
system.cpu.itb.stage2_mmu.stage2_tlb.flushTlb            0                       # Number of times complete TLB was flushed
system.cpu.itb.stage2_mmu.stage2_tlb.flushTlbMva            0                       # Number of times TLB was flushed by MVA
system.cpu.itb.stage2_mmu.stage2_tlb.flushTlbMvaAsid            0                       # Number of times TLB was flushed by MVA & ASID
system.cpu.itb.stage2_mmu.stage2_tlb.flushTlbAsid            0                       # Number of times TLB was flushed by ASID
system.cpu.itb.stage2_mmu.stage2_tlb.flushedEntries            0                       # Number of entries that have been flushed from TLB
system.cpu.itb.stage2_mmu.stage2_tlb.alignFaults            0                       # Number of TLB faults due to alignment restrictions
system.cpu.itb.stage2_mmu.stage2_tlb.prefetchFaults            0                       # Number of TLB faults due to prefetch
system.cpu.itb.stage2_mmu.stage2_tlb.domainFaults            0                       # Number of TLB faults due to domain restrictions
system.cpu.itb.stage2_mmu.stage2_tlb.permsFaults            0                       # Number of TLB faults due to permissions restrictions
system.cpu.itb.stage2_mmu.stage2_tlb.readAccesses            0                       # DTB read accesses
system.cpu.itb.stage2_mmu.stage2_tlb.writeAccesses            0                       # DTB write accesses
system.cpu.itb.stage2_mmu.stage2_tlb.instAccesses            0                       # ITB inst accesses
system.cpu.itb.stage2_mmu.stage2_tlb.hits            0                       # Total TLB (inst and data) hits
system.cpu.itb.stage2_mmu.stage2_tlb.misses            0                       # Total TLB (inst and data) misses
system.cpu.itb.stage2_mmu.stage2_tlb.accesses            0                       # Total TLB (inst and data) accesses
system.cpu.itb.stage2_mmu.stage2_tlb.walker.walks            0                       # Table walker walks requested
system.cpu.itb.stage2_mmu.stage2_tlb.walker.requestOrigin_Requested::Data            0                       # Table walker requests started/completed, data/inst
system.cpu.itb.stage2_mmu.stage2_tlb.walker.requestOrigin_Requested::Inst            0                       # Table walker requests started/completed, data/inst
system.cpu.itb.stage2_mmu.stage2_tlb.walker.requestOrigin_Requested::total            0                       # Table walker requests started/completed, data/inst
system.cpu.itb.stage2_mmu.stage2_tlb.walker.requestOrigin_Completed::Data            0                       # Table walker requests started/completed, data/inst
system.cpu.itb.stage2_mmu.stage2_tlb.walker.requestOrigin_Completed::Inst            0                       # Table walker requests started/completed, data/inst
system.cpu.itb.stage2_mmu.stage2_tlb.walker.requestOrigin_Completed::total            0                       # Table walker requests started/completed, data/inst
system.cpu.itb.stage2_mmu.stage2_tlb.walker.requestOrigin::total            0                       # Table walker requests started/completed, data/inst
system.cpu.itb.stage2_mmu.stage2_tlb.walker.power_state.pwrStateResidencyTicks::UNDEFINED  78812860070                       # Cumulative time (in ticks) in various power states
system.cpu.itb.walker.walks                         0                       # Table walker walks requested
system.cpu.itb.walker.requestOrigin_Requested::Data            0                       # Table walker requests started/completed, data/inst
system.cpu.itb.walker.requestOrigin_Requested::Inst            0                       # Table walker requests started/completed, data/inst
system.cpu.itb.walker.requestOrigin_Requested::total            0                       # Table walker requests started/completed, data/inst
system.cpu.itb.walker.requestOrigin_Completed::Data            0                       # Table walker requests started/completed, data/inst
system.cpu.itb.walker.requestOrigin_Completed::Inst            0                       # Table walker requests started/completed, data/inst
system.cpu.itb.walker.requestOrigin_Completed::total            0                       # Table walker requests started/completed, data/inst
system.cpu.itb.walker.requestOrigin::total            0                       # Table walker requests started/completed, data/inst
system.cpu.itb.walker.power_state.pwrStateResidencyTicks::UNDEFINED  78812860070                       # Cumulative time (in ticks) in various power states
system.cpu.power_state.pwrStateResidencyTicks::ON  78812860070                       # Cumulative time (in ticks) in various power states
system.cpu.thread_0.numInsts                100000000                       # Number of Instructions committed
system.cpu.thread_0.numOps                  101102730                       # Number of Ops committed
system.cpu.thread_0.numMemRefs                      0                       # Number of Memory References
system.cpu_clk_domain.clock                       667                       # Clock period in ticks
system.cpu_voltage_domain.voltage                   1                       # Voltage in Volts
system.l2.demand_hits::.cpu.inst                 6121                       # number of demand (read+write) hits
system.l2.demand_hits::.cpu.data                28750                       # number of demand (read+write) hits
system.l2.demand_hits::total                    34871                       # number of demand (read+write) hits
system.l2.overall_hits::.cpu.inst                6121                       # number of overall hits
system.l2.overall_hits::.cpu.data               28750                       # number of overall hits
system.l2.overall_hits::total                   34871                       # number of overall hits
system.l2.demand_misses::.cpu.inst                502                       # number of demand (read+write) misses
system.l2.demand_misses::.cpu.data               1116                       # number of demand (read+write) misses
system.l2.demand_misses::total                   1618                       # number of demand (read+write) misses
system.l2.overall_misses::.cpu.inst               502                       # number of overall misses
system.l2.overall_misses::.cpu.data              1116                       # number of overall misses
system.l2.overall_misses::total                  1618                       # number of overall misses
system.l2.demand_miss_latency::.cpu.inst     51945960                       # number of demand (read+write) miss cycles
system.l2.demand_miss_latency::.cpu.data    117650796                       # number of demand (read+write) miss cycles
system.l2.demand_miss_latency::total        169596756                       # number of demand (read+write) miss cycles
system.l2.overall_miss_latency::.cpu.inst     51945960                       # number of overall miss cycles
system.l2.overall_miss_latency::.cpu.data    117650796                       # number of overall miss cycles
system.l2.overall_miss_latency::total       169596756                       # number of overall miss cycles
system.l2.demand_accesses::.cpu.inst             6623                       # number of demand (read+write) accesses
system.l2.demand_accesses::.cpu.data            29866                       # number of demand (read+write) accesses
system.l2.demand_accesses::total                36489                       # number of demand (read+write) accesses
system.l2.overall_accesses::.cpu.inst            6623                       # number of overall (read+write) accesses
system.l2.overall_accesses::.cpu.data           29866                       # number of overall (read+write) accesses
system.l2.overall_accesses::total               36489                       # number of overall (read+write) accesses
system.l2.demand_miss_rate::.cpu.inst        0.075796                       # miss rate for demand accesses
system.l2.demand_miss_rate::.cpu.data        0.037367                       # miss rate for demand accesses
system.l2.demand_miss_rate::total            0.044342                       # miss rate for demand accesses
system.l2.overall_miss_rate::.cpu.inst       0.075796                       # miss rate for overall accesses
system.l2.overall_miss_rate::.cpu.data       0.037367                       # miss rate for overall accesses
system.l2.overall_miss_rate::total           0.044342                       # miss rate for overall accesses
system.l2.demand_avg_miss_latency::.cpu.inst 103478.007968                       # average overall miss latency
system.l2.demand_avg_miss_latency::.cpu.data 105421.860215                       # average overall miss latency
system.l2.demand_avg_miss_latency::total 104818.761434                       # average overall miss latency
system.l2.overall_avg_miss_latency::.cpu.inst 103478.007968                       # average overall miss latency
system.l2.overall_avg_miss_latency::.cpu.data 105421.860215                       # average overall miss latency
system.l2.overall_avg_miss_latency::total 104818.761434                       # average overall miss latency
system.l2.blocked_cycles::no_mshrs                  0                       # number of cycles access was blocked
system.l2.blocked_cycles::no_targets                0                       # number of cycles access was blocked
system.l2.blocked::no_mshrs                         0                       # number of cycles access was blocked
system.l2.blocked::no_targets                       0                       # number of cycles access was blocked
system.l2.avg_blocked_cycles::no_mshrs            nan                       # average number of cycles each access was blocked
system.l2.avg_blocked_cycles::no_targets          nan                       # average number of cycles each access was blocked
system.l2.demand_mshr_hits::.cpu.data               7                       # number of demand (read+write) MSHR hits
system.l2.demand_mshr_hits::total                   7                       # number of demand (read+write) MSHR hits
system.l2.overall_mshr_hits::.cpu.data              7                       # number of overall MSHR hits
system.l2.overall_mshr_hits::total                  7                       # number of overall MSHR hits
system.l2.demand_mshr_misses::.cpu.inst           502                       # number of demand (read+write) MSHR misses
system.l2.demand_mshr_misses::.cpu.data          1109                       # number of demand (read+write) MSHR misses
system.l2.demand_mshr_misses::total              1611                       # number of demand (read+write) MSHR misses
system.l2.overall_mshr_misses::.cpu.inst          502                       # number of overall MSHR misses
system.l2.overall_mshr_misses::.cpu.data         1109                       # number of overall MSHR misses
system.l2.overall_mshr_misses::total             1611                       # number of overall MSHR misses
system.l2.demand_mshr_miss_latency::.cpu.inst     45062101                       # number of demand (read+write) MSHR miss cycles
system.l2.demand_mshr_miss_latency::.cpu.data    101822768                       # number of demand (read+write) MSHR miss cycles
system.l2.demand_mshr_miss_latency::total    146884869                       # number of demand (read+write) MSHR miss cycles
system.l2.overall_mshr_miss_latency::.cpu.inst     45062101                       # number of overall MSHR miss cycles
system.l2.overall_mshr_miss_latency::.cpu.data    101822768                       # number of overall MSHR miss cycles
system.l2.overall_mshr_miss_latency::total    146884869                       # number of overall MSHR miss cycles
system.l2.demand_mshr_miss_rate::.cpu.inst     0.075796                       # mshr miss rate for demand accesses
system.l2.demand_mshr_miss_rate::.cpu.data     0.037133                       # mshr miss rate for demand accesses
system.l2.demand_mshr_miss_rate::total       0.044150                       # mshr miss rate for demand accesses
system.l2.overall_mshr_miss_rate::.cpu.inst     0.075796                       # mshr miss rate for overall accesses
system.l2.overall_mshr_miss_rate::.cpu.data     0.037133                       # mshr miss rate for overall accesses
system.l2.overall_mshr_miss_rate::total      0.044150                       # mshr miss rate for overall accesses
system.l2.demand_avg_mshr_miss_latency::.cpu.inst 89765.141434                       # average overall mshr miss latency
system.l2.demand_avg_mshr_miss_latency::.cpu.data 91814.939585                       # average overall mshr miss latency
system.l2.demand_avg_mshr_miss_latency::total 91176.206704                       # average overall mshr miss latency
system.l2.overall_avg_mshr_miss_latency::.cpu.inst 89765.141434                       # average overall mshr miss latency
system.l2.overall_avg_mshr_miss_latency::.cpu.data 91814.939585                       # average overall mshr miss latency
system.l2.overall_avg_mshr_miss_latency::total 91176.206704                       # average overall mshr miss latency
system.l2.replacements                              0                       # number of replacements
system.l2.WritebackDirty_hits::.writebacks        28614                       # number of WritebackDirty hits
system.l2.WritebackDirty_hits::total            28614                       # number of WritebackDirty hits
system.l2.WritebackDirty_accesses::.writebacks        28614                       # number of WritebackDirty accesses(hits+misses)
system.l2.WritebackDirty_accesses::total        28614                       # number of WritebackDirty accesses(hits+misses)
system.l2.WritebackClean_hits::.writebacks         6247                       # number of WritebackClean hits
system.l2.WritebackClean_hits::total             6247                       # number of WritebackClean hits
system.l2.WritebackClean_accesses::.writebacks         6247                       # number of WritebackClean accesses(hits+misses)
system.l2.WritebackClean_accesses::total         6247                       # number of WritebackClean accesses(hits+misses)
system.l2.ReadExReq_hits::.cpu.data             14088                       # number of ReadExReq hits
system.l2.ReadExReq_hits::total                 14088                       # number of ReadExReq hits
system.l2.ReadExReq_misses::.cpu.data             935                       # number of ReadExReq misses
system.l2.ReadExReq_misses::total                 935                       # number of ReadExReq misses
system.l2.ReadExReq_miss_latency::.cpu.data     97711498                       # number of ReadExReq miss cycles
system.l2.ReadExReq_miss_latency::total      97711498                       # number of ReadExReq miss cycles
system.l2.ReadExReq_accesses::.cpu.data         15023                       # number of ReadExReq accesses(hits+misses)
system.l2.ReadExReq_accesses::total             15023                       # number of ReadExReq accesses(hits+misses)
system.l2.ReadExReq_miss_rate::.cpu.data     0.062238                       # miss rate for ReadExReq accesses
system.l2.ReadExReq_miss_rate::total         0.062238                       # miss rate for ReadExReq accesses
system.l2.ReadExReq_avg_miss_latency::.cpu.data 104504.275936                       # average ReadExReq miss latency
system.l2.ReadExReq_avg_miss_latency::total 104504.275936                       # average ReadExReq miss latency
system.l2.ReadExReq_mshr_misses::.cpu.data          935                       # number of ReadExReq MSHR misses
system.l2.ReadExReq_mshr_misses::total            935                       # number of ReadExReq MSHR misses
system.l2.ReadExReq_mshr_miss_latency::.cpu.data     84880255                       # number of ReadExReq MSHR miss cycles
system.l2.ReadExReq_mshr_miss_latency::total     84880255                       # number of ReadExReq MSHR miss cycles
system.l2.ReadExReq_mshr_miss_rate::.cpu.data     0.062238                       # mshr miss rate for ReadExReq accesses
system.l2.ReadExReq_mshr_miss_rate::total     0.062238                       # mshr miss rate for ReadExReq accesses
system.l2.ReadExReq_avg_mshr_miss_latency::.cpu.data 90781.021390                       # average ReadExReq mshr miss latency
system.l2.ReadExReq_avg_mshr_miss_latency::total 90781.021390                       # average ReadExReq mshr miss latency
system.l2.ReadCleanReq_hits::.cpu.inst           6121                       # number of ReadCleanReq hits
system.l2.ReadCleanReq_hits::total               6121                       # number of ReadCleanReq hits
system.l2.ReadCleanReq_misses::.cpu.inst          502                       # number of ReadCleanReq misses
system.l2.ReadCleanReq_misses::total              502                       # number of ReadCleanReq misses
system.l2.ReadCleanReq_miss_latency::.cpu.inst     51945960                       # number of ReadCleanReq miss cycles
system.l2.ReadCleanReq_miss_latency::total     51945960                       # number of ReadCleanReq miss cycles
system.l2.ReadCleanReq_accesses::.cpu.inst         6623                       # number of ReadCleanReq accesses(hits+misses)
system.l2.ReadCleanReq_accesses::total           6623                       # number of ReadCleanReq accesses(hits+misses)
system.l2.ReadCleanReq_miss_rate::.cpu.inst     0.075796                       # miss rate for ReadCleanReq accesses
system.l2.ReadCleanReq_miss_rate::total      0.075796                       # miss rate for ReadCleanReq accesses
system.l2.ReadCleanReq_avg_miss_latency::.cpu.inst 103478.007968                       # average ReadCleanReq miss latency
system.l2.ReadCleanReq_avg_miss_latency::total 103478.007968                       # average ReadCleanReq miss latency
system.l2.ReadCleanReq_mshr_misses::.cpu.inst          502                       # number of ReadCleanReq MSHR misses
system.l2.ReadCleanReq_mshr_misses::total          502                       # number of ReadCleanReq MSHR misses
system.l2.ReadCleanReq_mshr_miss_latency::.cpu.inst     45062101                       # number of ReadCleanReq MSHR miss cycles
system.l2.ReadCleanReq_mshr_miss_latency::total     45062101                       # number of ReadCleanReq MSHR miss cycles
system.l2.ReadCleanReq_mshr_miss_rate::.cpu.inst     0.075796                       # mshr miss rate for ReadCleanReq accesses
system.l2.ReadCleanReq_mshr_miss_rate::total     0.075796                       # mshr miss rate for ReadCleanReq accesses
system.l2.ReadCleanReq_avg_mshr_miss_latency::.cpu.inst 89765.141434                       # average ReadCleanReq mshr miss latency
system.l2.ReadCleanReq_avg_mshr_miss_latency::total 89765.141434                       # average ReadCleanReq mshr miss latency
system.l2.ReadSharedReq_hits::.cpu.data         14662                       # number of ReadSharedReq hits
system.l2.ReadSharedReq_hits::total             14662                       # number of ReadSharedReq hits
system.l2.ReadSharedReq_misses::.cpu.data          181                       # number of ReadSharedReq misses
system.l2.ReadSharedReq_misses::total             181                       # number of ReadSharedReq misses
system.l2.ReadSharedReq_miss_latency::.cpu.data     19939298                       # number of ReadSharedReq miss cycles
system.l2.ReadSharedReq_miss_latency::total     19939298                       # number of ReadSharedReq miss cycles
system.l2.ReadSharedReq_accesses::.cpu.data        14843                       # number of ReadSharedReq accesses(hits+misses)
system.l2.ReadSharedReq_accesses::total         14843                       # number of ReadSharedReq accesses(hits+misses)
system.l2.ReadSharedReq_miss_rate::.cpu.data     0.012194                       # miss rate for ReadSharedReq accesses
system.l2.ReadSharedReq_miss_rate::total     0.012194                       # miss rate for ReadSharedReq accesses
system.l2.ReadSharedReq_avg_miss_latency::.cpu.data 110161.867403                       # average ReadSharedReq miss latency
system.l2.ReadSharedReq_avg_miss_latency::total 110161.867403                       # average ReadSharedReq miss latency
system.l2.ReadSharedReq_mshr_hits::.cpu.data            7                       # number of ReadSharedReq MSHR hits
system.l2.ReadSharedReq_mshr_hits::total            7                       # number of ReadSharedReq MSHR hits
system.l2.ReadSharedReq_mshr_misses::.cpu.data          174                       # number of ReadSharedReq MSHR misses
system.l2.ReadSharedReq_mshr_misses::total          174                       # number of ReadSharedReq MSHR misses
system.l2.ReadSharedReq_mshr_miss_latency::.cpu.data     16942513                       # number of ReadSharedReq MSHR miss cycles
system.l2.ReadSharedReq_mshr_miss_latency::total     16942513                       # number of ReadSharedReq MSHR miss cycles
system.l2.ReadSharedReq_mshr_miss_rate::.cpu.data     0.011723                       # mshr miss rate for ReadSharedReq accesses
system.l2.ReadSharedReq_mshr_miss_rate::total     0.011723                       # mshr miss rate for ReadSharedReq accesses
system.l2.ReadSharedReq_avg_mshr_miss_latency::.cpu.data 97370.764368                       # average ReadSharedReq mshr miss latency
system.l2.ReadSharedReq_avg_mshr_miss_latency::total 97370.764368                       # average ReadSharedReq mshr miss latency
system.l2.power_state.pwrStateResidencyTicks::UNDEFINED  78812860070                       # Cumulative time (in ticks) in various power states
system.l2.tags.tagsinuse                  1562.306429                       # Cycle average of tags in use
system.l2.tags.total_refs                       71767                       # Total number of references to valid blocks.
system.l2.tags.sampled_refs                      1611                       # Sample count of references to valid blocks.
system.l2.tags.avg_refs                     44.548107                       # Average number of references to valid blocks.
system.l2.tags.warmup_cycle                     95000                       # Cycle when the warmup percentage was hit.
system.l2.tags.occ_blocks::.cpu.inst       500.845413                       # Average occupied blocks per requestor
system.l2.tags.occ_blocks::.cpu.data      1061.461016                       # Average occupied blocks per requestor
system.l2.tags.occ_percent::.cpu.inst        0.061138                       # Average percentage of cache occupancy
system.l2.tags.occ_percent::.cpu.data        0.129573                       # Average percentage of cache occupancy
system.l2.tags.occ_percent::total            0.190711                       # Average percentage of cache occupancy
system.l2.tags.occ_task_id_blocks::1024          1611                       # Occupied blocks per task id
system.l2.tags.age_task_id_blocks_1024::4         1611                       # Occupied blocks per task id
system.l2.tags.occ_task_id_percent::1024     0.196655                       # Percentage of cache occupancy per task id
system.l2.tags.tag_accesses                    575803                       # Number of tag accesses
system.l2.tags.data_accesses                   575803                       # Number of data accesses
system.l2.tags.power_state.pwrStateResidencyTicks::UNDEFINED  78812860070                       # Cumulative time (in ticks) in various power states
system.mem_ctrls.avgPriority_.cpu.inst::samples      2008.00                       # Average QoS priority value for accepted requests
system.mem_ctrls.avgPriority_.cpu.data::samples      4436.00                       # Average QoS priority value for accepted requests
system.mem_ctrls.priorityMinLatency      0.000000018750                       # per QoS priority minimum request to response latency (s)
system.mem_ctrls.priorityMaxLatency      0.000000555376                       # per QoS priority maximum request to response latency (s)
system.mem_ctrls.numReadWriteTurnArounds            0                       # Number of turnarounds from READ to WRITE
system.mem_ctrls.numWriteReadTurnArounds            0                       # Number of turnarounds from WRITE to READ
system.mem_ctrls.numStayReadState               28271                       # Number of times bus staying in READ state
system.mem_ctrls.numStayWriteState                  0                       # Number of times bus staying in WRITE state
system.mem_ctrls.readReqs                        1611                       # Number of read requests accepted
system.mem_ctrls.writeReqs                          0                       # Number of write requests accepted
system.mem_ctrls.readBursts                      6444                       # Number of controller read bursts, including those serviced by the write queue
system.mem_ctrls.writeBursts                        0                       # Number of controller write bursts, including those merged in the write queue
system.mem_ctrls.servicedByWrQ                      0                       # Number of controller read bursts serviced by the write queue
system.mem_ctrls.mergedWrBursts                     0                       # Number of controller write bursts merged with an existing one
system.mem_ctrls.neitherReadNorWriteReqs            0                       # Number of requests that are neither read nor write
system.mem_ctrls.avgRdQLen                       4.01                       # Average read queue length when enqueuing
system.mem_ctrls.avgWrQLen                       0.00                       # Average write queue length when enqueuing
system.mem_ctrls.numRdRetry                         0                       # Number of times read queue was full causing retry
system.mem_ctrls.numWrRetry                         0                       # Number of times write queue was full causing retry
system.mem_ctrls.readPktSize::0                     0                       # Read request sizes (log2)
system.mem_ctrls.readPktSize::1                     0                       # Read request sizes (log2)
system.mem_ctrls.readPktSize::2                     0                       # Read request sizes (log2)
system.mem_ctrls.readPktSize::3                     0                       # Read request sizes (log2)
system.mem_ctrls.readPktSize::4                     0                       # Read request sizes (log2)
system.mem_ctrls.readPktSize::5                     0                       # Read request sizes (log2)
system.mem_ctrls.readPktSize::6                  6444                       # Read request sizes (log2)
system.mem_ctrls.readPktSize::7                     0                       # Read request sizes (log2)
system.mem_ctrls.readPktSize::8                     0                       # Read request sizes (log2)
system.mem_ctrls.writePktSize::0                    0                       # Write request sizes (log2)
system.mem_ctrls.writePktSize::1                    0                       # Write request sizes (log2)
system.mem_ctrls.writePktSize::2                    0                       # Write request sizes (log2)
system.mem_ctrls.writePktSize::3                    0                       # Write request sizes (log2)
system.mem_ctrls.writePktSize::4                    0                       # Write request sizes (log2)
system.mem_ctrls.writePktSize::5                    0                       # Write request sizes (log2)
system.mem_ctrls.writePktSize::6                    0                       # Write request sizes (log2)
system.mem_ctrls.writePktSize::7                    0                       # Write request sizes (log2)
system.mem_ctrls.writePktSize::8                    0                       # Write request sizes (log2)
system.mem_ctrls.rdQLenPdf::0                    1545                       # What read queue length does an incoming req see
system.mem_ctrls.rdQLenPdf::1                    1548                       # What read queue length does an incoming req see
system.mem_ctrls.rdQLenPdf::2                    1549                       # What read queue length does an incoming req see
system.mem_ctrls.rdQLenPdf::3                    1551                       # What read queue length does an incoming req see
system.mem_ctrls.rdQLenPdf::4                      64                       # What read queue length does an incoming req see
system.mem_ctrls.rdQLenPdf::5                      62                       # What read queue length does an incoming req see
system.mem_ctrls.rdQLenPdf::6                      61                       # What read queue length does an incoming req see
system.mem_ctrls.rdQLenPdf::7                      59                       # What read queue length does an incoming req see
system.mem_ctrls.rdQLenPdf::8                       2                       # What read queue length does an incoming req see
system.mem_ctrls.rdQLenPdf::9                       1                       # What read queue length does an incoming req see
system.mem_ctrls.rdQLenPdf::10                      1                       # What read queue length does an incoming req see
system.mem_ctrls.rdQLenPdf::11                      1                       # What read queue length does an incoming req see
system.mem_ctrls.rdQLenPdf::12                      0                       # What read queue length does an incoming req see
system.mem_ctrls.rdQLenPdf::13                      0                       # What read queue length does an incoming req see
[...]
system.mem_ctrls.dram.bytes_inst_read::total       128512                       # Number of instructions bytes read from this memory
system.mem_ctrls.dram.num_reads::.cpu.inst          502                       # Number of read requests responded to by this memory
system.mem_ctrls.dram.num_reads::.cpu.data         1109                       # Number of read requests responded to by this memory
system.mem_ctrls.dram.num_reads::total           1611                       # Number of read requests responded to by this memory
system.mem_ctrls.dram.bw_read::.cpu.inst      1630597                       # Total read bandwidth from this memory (bytes/s)
system.mem_ctrls.dram.bw_read::.cpu.data      3602255                       # Total read bandwidth from this memory (bytes/s)
system.mem_ctrls.dram.bw_read::total          5232852                       # Total read bandwidth from this memory (bytes/s)
system.mem_ctrls.dram.bw_inst_read::.cpu.inst      1630597                       # Instruction read bandwidth from this memory (bytes/s)
system.mem_ctrls.dram.bw_inst_read::total      1630597                       # Instruction read bandwidth from this memory (bytes/s)
system.mem_ctrls.dram.bw_total::.cpu.inst      1630597                       # Total bandwidth to/from this memory (bytes/s)
system.mem_ctrls.dram.bw_total::.cpu.data      3602255                       # Total bandwidth to/from this memory (bytes/s)
system.mem_ctrls.dram.bw_total::total         5232852                       # Total bandwidth to/from this memory (bytes/s)
system.mem_ctrls.dram.readBursts                 6444                       # Number of DRAM read bursts
system.mem_ctrls.dram.writeBursts                   0                       # Number of DRAM write bursts
system.mem_ctrls.dram.perBankRdBursts::0          328                       # Per bank write bursts
system.mem_ctrls.dram.perBankRdBursts::1          332                       # Per bank write bursts
system.mem_ctrls.dram.perBankRdBursts::2          308                       # Per bank write bursts
system.mem_ctrls.dram.perBankRdBursts::3          480                       # Per bank write bursts
system.mem_ctrls.dram.perBankRdBursts::4          484                       # Per bank write bursts
system.mem_ctrls.dram.perBankRdBursts::5          404                       # Per bank write bursts
system.mem_ctrls.dram.perBankRdBursts::6          424                       # Per bank write bursts
system.mem_ctrls.dram.perBankRdBursts::7          456                       # Per bank write bursts
system.mem_ctrls.dram.perBankRdBursts::8          408                       # Per bank write bursts
system.mem_ctrls.dram.perBankRdBursts::9          368                       # Per bank write bursts
system.mem_ctrls.dram.perBankRdBursts::10          504                       # Per bank write bursts
system.mem_ctrls.dram.perBankRdBursts::11          348                       # Per bank write bursts
system.mem_ctrls.dram.perBankRdBursts::12          328                       # Per bank write bursts
system.mem_ctrls.dram.perBankRdBursts::13          404                       # Per bank write bursts
system.mem_ctrls.dram.perBankRdBursts::14          504                       # Per bank write bursts
system.mem_ctrls.dram.perBankRdBursts::15          364                       # Per bank write bursts
system.mem_ctrls.dram.perBankWrBursts::0            0                       # Per bank write bursts
system.mem_ctrls.dram.perBankWrBursts::1            0                       # Per bank write bursts
system.mem_ctrls.dram.perBankWrBursts::2            0                       # Per bank write bursts
system.mem_ctrls.dram.perBankWrBursts::3            0                       # Per bank write bursts
system.mem_ctrls.dram.perBankWrBursts::4            0                       # Per bank write bursts
system.mem_ctrls.dram.perBankWrBursts::5            0                       # Per bank write bursts
system.mem_ctrls.dram.perBankWrBursts::6            0                       # Per bank write bursts
system.mem_ctrls.dram.perBankWrBursts::7            0                       # Per bank write bursts
system.mem_ctrls.dram.perBankWrBursts::8            0                       # Per bank write bursts
system.mem_ctrls.dram.perBankWrBursts::9            0                       # Per bank write bursts
system.mem_ctrls.dram.perBankWrBursts::10            0                       # Per bank write bursts
system.mem_ctrls.dram.perBankWrBursts::11            0                       # Per bank write bursts
system.mem_ctrls.dram.perBankWrBursts::12            0                       # Per bank write bursts
system.mem_ctrls.dram.perBankWrBursts::13            0                       # Per bank write bursts
system.mem_ctrls.dram.perBankWrBursts::14            0                       # Per bank write bursts
system.mem_ctrls.dram.perBankWrBursts::15            0                       # Per bank write bursts
system.mem_ctrls.dram.totQLat               129231480                       # Total ticks spent queuing
system.mem_ctrls.dram.totBusLat              32220000                       # Total ticks spent in databus transfers
system.mem_ctrls.dram.totMemAccLat          250056480                       # Total ticks spent from burst creation until serviced by the DRAM
system.mem_ctrls.dram.avgQLat                20054.54                       # Average queueing delay per DRAM burst
system.mem_ctrls.dram.avgBusLat               5000.00                       # Average bus latency per DRAM burst
system.mem_ctrls.dram.avgMemAccLat           38804.54                       # Average memory access latency per DRAM burst
system.mem_ctrls.dram.readRowHits                5640                       # Number of row buffer hits during reads
system.mem_ctrls.dram.writeRowHits                  0                       # Number of row buffer hits during writes
system.mem_ctrls.dram.readRowHitRate            87.52                       # Row buffer hit rate for reads
system.mem_ctrls.dram.writeRowHitRate             nan                       # Row buffer hit rate for writes
system.mem_ctrls.dram.bytesPerActivate::samples          804                       # Bytes accessed per row activation
system.mem_ctrls.dram.bytesPerActivate::mean   512.955224                       # Bytes accessed per row activation
system.mem_ctrls.dram.bytesPerActivate::gmean   430.176314                       # Bytes accessed per row activation
system.mem_ctrls.dram.bytesPerActivate::stdev   312.294339                       # Bytes accessed per row activation
system.mem_ctrls.dram.bytesPerActivate::256-383          418     51.99%     51.99% # Bytes accessed per row activation
system.mem_ctrls.dram.bytesPerActivate::512-639          143     17.79%     69.78% # Bytes accessed per row activation
system.mem_ctrls.dram.bytesPerActivate::768-895           65      8.08%     77.86% # Bytes accessed per row activation
system.mem_ctrls.dram.bytesPerActivate::1024-1151          178     22.14%    100.00% # Bytes accessed per row activation
system.mem_ctrls.dram.bytesPerActivate::total          804                       # Bytes accessed per row activation
system.mem_ctrls.dram.bytesRead                412416                       # Total number of bytes read from DRAM
system.mem_ctrls.dram.bytesWritten                  0                       # Total number of bytes written to DRAM
system.mem_ctrls.dram.avgRdBW                5.232852                       # Average DRAM read bandwidth in MiBytes/s
system.mem_ctrls.dram.avgWrBW                       0                       # Average DRAM write bandwidth in MiBytes/s
system.mem_ctrls.dram.peakBW                 12800.00                       # Theoretical peak bandwidth in MiByte/s
system.mem_ctrls.dram.busUtil                    0.04                       # Data bus utilization in percentage
system.mem_ctrls.dram.busUtilRead                0.04                       # Data bus utilization in percentage for reads
system.mem_ctrls.dram.busUtilWrite               0.00                       # Data bus utilization in percentage for writes
system.mem_ctrls.dram.pageHitRate               87.52                       # Row buffer hit rate, read and write combined
system.mem_ctrls.dram.power_state.pwrStateResidencyTicks::UNDEFINED  78812860070                       # Cumulative time (in ticks) in various power states
system.mem_ctrls.dram.rank0.actEnergy         2977380                       # Energy for activate commands per rank (pJ)
system.mem_ctrls.dram.rank0.preEnergy         1582515                       # Energy for precharge commands per rank (pJ)
system.mem_ctrls.dram.rank0.readEnergy       22962240                       # Energy for read commands per rank (pJ)
system.mem_ctrls.dram.rank0.writeEnergy             0                       # Energy for write commands per rank (pJ)
system.mem_ctrls.dram.rank0.refreshEnergy 6221386080.000001                       # Energy for refresh commands per rank (pJ)
system.mem_ctrls.dram.rank0.actBackEnergy   1539059850                       # Energy for active background per rank (pJ)
system.mem_ctrls.dram.rank0.preBackEnergy  28968088320                       # Energy for precharge background per rank (pJ)
system.mem_ctrls.dram.rank0.actPowerDownEnergy            0                       # Energy for active power-down per rank (pJ)
system.mem_ctrls.dram.rank0.prePowerDownEnergy            0                       # Energy for precharge power-down per rank (pJ)
system.mem_ctrls.dram.rank0.selfRefreshEnergy            0                       # Energy for self refresh per rank (pJ)
system.mem_ctrls.dram.rank0.totalEnergy   36756056385                       # Total energy per rank (pJ)
system.mem_ctrls.dram.rank0.averagePower   466.371305                       # Core power per rank (mW)
system.mem_ctrls.dram.rank0.totalIdleTime            0                       # Total Idle time Per DRAM Rank
system.mem_ctrls.dram.rank0.pwrStateTime::IDLE  75295410204                       # Time in different power states
system.mem_ctrls.dram.rank0.pwrStateTime::REF   2631720000                       # Time in different power states
system.mem_ctrls.dram.rank0.pwrStateTime::SREF            0                       # Time in different power states
system.mem_ctrls.dram.rank0.pwrStateTime::PRE_PDN            0                       # Time in different power states
system.mem_ctrls.dram.rank0.pwrStateTime::ACT    885729866                       # Time in different power states
system.mem_ctrls.dram.rank0.pwrStateTime::ACT_PDN            0                       # Time in different power states
system.mem_ctrls.dram.rank1.actEnergy         2763180                       # Energy for activate commands per rank (pJ)
system.mem_ctrls.dram.rank1.preEnergy         1468665                       # Energy for precharge commands per rank (pJ)
system.mem_ctrls.dram.rank1.readEnergy       23047920                       # Energy for read commands per rank (pJ)
system.mem_ctrls.dram.rank1.writeEnergy             0                       # Energy for write commands per rank (pJ)
system.mem_ctrls.dram.rank1.refreshEnergy 6221386080.000001                       # Energy for refresh commands per rank (pJ)
system.mem_ctrls.dram.rank1.actBackEnergy   1500942240                       # Energy for active background per rank (pJ)
system.mem_ctrls.dram.rank1.preBackEnergy  29000187360                       # Energy for precharge background per rank (pJ)
system.mem_ctrls.dram.rank1.actPowerDownEnergy            0                       # Energy for active power-down per rank (pJ)
system.mem_ctrls.dram.rank1.prePowerDownEnergy            0                       # Energy for precharge power-down per rank (pJ)
system.mem_ctrls.dram.rank1.selfRefreshEnergy            0                       # Energy for self refresh per rank (pJ)
system.mem_ctrls.dram.rank1.totalEnergy   36749795445                       # Total energy per rank (pJ)
system.mem_ctrls.dram.rank1.averagePower   466.291864                       # Core power per rank (mW)
system.mem_ctrls.dram.rank1.totalIdleTime            0                       # Total Idle time Per DRAM Rank
system.mem_ctrls.dram.rank1.pwrStateTime::IDLE  75379159498                       # Time in different power states
system.mem_ctrls.dram.rank1.pwrStateTime::REF   2631720000                       # Time in different power states
system.mem_ctrls.dram.rank1.pwrStateTime::SREF            0                       # Time in different power states
system.mem_ctrls.dram.rank1.pwrStateTime::PRE_PDN            0                       # Time in different power states
system.mem_ctrls.dram.rank1.pwrStateTime::ACT    801980572                       # Time in different power states
system.mem_ctrls.dram.rank1.pwrStateTime::ACT_PDN            0                       # Time in different power states
system.mem_ctrls.power_state.pwrStateResidencyTicks::UNDEFINED  78812860070                       # Cumulative time (in ticks) in various power states
system.membus.trans_dist::ReadResp                676                       # Transaction distribution
system.membus.trans_dist::ReadExReq               935                       # Transaction distribution
system.membus.trans_dist::ReadExResp              935                       # Transaction distribution
system.membus.trans_dist::ReadSharedReq           676                       # Transaction distribution
system.membus.pkt_count_system.l2.mem_side_port::system.mem_ctrls.port         3222                       # Packet count per connected requestor and responder (bytes)
system.membus.pkt_count::total                   3222                       # Packet count per connected requestor and responder (bytes)
system.membus.pkt_size_system.l2.mem_side_port::system.mem_ctrls.port       412416                       # Cumulative packet size per connected requestor and responder (bytes)
system.membus.pkt_size::total                  412416                       # Cumulative packet size per connected requestor and responder (bytes)
system.membus.snoops                                0                       # Total snoops (count)
system.membus.snoopTraffic                          0                       # Total snoop traffic (bytes)
system.membus.snoop_fanout::samples              1611                       # Request fanout histogram
system.membus.snoop_fanout::mean                    0                       # Request fanout histogram
system.membus.snoop_fanout::stdev                   0                       # Request fanout histogram
system.membus.snoop_fanout::underflows              0      0.00%      0.00% # Request fanout histogram
system.membus.snoop_fanout::0                    1611    100.00%    100.00% # Request fanout histogram
system.membus.snoop_fanout::1                       0      0.00%    100.00% # Request fanout histogram
system.membus.snoop_fanout::overflows               0      0.00%    100.00% # Request fanout histogram
system.membus.snoop_fanout::min_value               0                       # Request fanout histogram
system.membus.snoop_fanout::max_value               0                       # Request fanout histogram
system.membus.snoop_fanout::total                1611                       # Request fanout histogram
system.membus.power_state.pwrStateResidencyTicks::UNDEFINED  78812860070                       # Cumulative time (in ticks) in various power states
system.membus.reqLayer0.occupancy             2365749                       # Layer occupancy (ticks)
system.membus.reqLayer0.utilization               0.0                       # Layer utilization (%)
system.membus.respLayer1.occupancy           28018380                       # Layer occupancy (ticks)
system.membus.respLayer1.utilization              0.0                       # Layer utilization (%)
system.tol2bus.trans_dist::ReadResp             21466                       # Transaction distribution
system.tol2bus.trans_dist::WritebackDirty        28614                       # Transaction distribution
system.tol2bus.trans_dist::WritebackClean         6495                       # Transaction distribution
system.tol2bus.trans_dist::CleanEvict             996                       # Transaction distribution
system.tol2bus.trans_dist::ReadExReq            15023                       # Transaction distribution
system.tol2bus.trans_dist::ReadExResp           15023                       # Transaction distribution
system.tol2bus.trans_dist::ReadCleanReq          6623                       # Transaction distribution
system.tol2bus.trans_dist::ReadSharedReq        14843                       # Transaction distribution
system.tol2bus.pkt_count_system.cpu.icache.mem_side_port::system.l2.cpu_side_port        19741                       # Packet count per connected requestor and responder (bytes)
system.tol2bus.pkt_count_system.cpu.dcache.mem_side_port::system.l2.cpu_side_port        89342                       # Packet count per connected requestor and responder (bytes)
system.tol2bus.pkt_count::total                109083                       # Packet count per connected requestor and responder (bytes)
system.tol2bus.pkt_size_system.cpu.icache.mem_side_port::system.l2.cpu_side_port      3358208                       # Cumulative packet size per connected requestor and responder (bytes)
system.tol2bus.pkt_size_system.cpu.dcache.mem_side_port::system.l2.cpu_side_port     14970880                       # Cumulative packet size per connected requestor and responder (bytes)
system.tol2bus.pkt_size::total               18329088                       # Cumulative packet size per connected requestor and responder (bytes)
system.tol2bus.snoops                               0                       # Total snoops (count)
system.tol2bus.snoopTraffic                         0                       # Total snoop traffic (bytes)
system.tol2bus.snoop_fanout::samples            36489                       # Request fanout histogram
system.tol2bus.snoop_fanout::mean            0.022719                       # Request fanout histogram
system.tol2bus.snoop_fanout::stdev           0.149009                       # Request fanout histogram
system.tol2bus.snoop_fanout::underflows             0      0.00%      0.00% # Request fanout histogram
system.tol2bus.snoop_fanout::0                  35660     97.73%     97.73% # Request fanout histogram
system.tol2bus.snoop_fanout::1                    829      2.27%    100.00% # Request fanout histogram
system.tol2bus.snoop_fanout::2                      0      0.00%    100.00% # Request fanout histogram
system.tol2bus.snoop_fanout::overflows              0      0.00%    100.00% # Request fanout histogram
system.tol2bus.snoop_fanout::min_value              0                       # Request fanout histogram
system.tol2bus.snoop_fanout::max_value              1                       # Request fanout histogram
system.tol2bus.snoop_fanout::total              36489                       # Request fanout histogram
system.tol2bus.power_state.pwrStateResidencyTicks::UNDEFINED  78812860070                       # Cumulative time (in ticks) in various power states
system.tol2bus.reqLayer0.occupancy          235761822                       # Layer occupancy (ticks)
system.tol2bus.reqLayer0.utilization              0.3                       # Layer utilization (%)
system.tol2bus.respLayer0.occupancy          39757869                       # Layer occupancy (ticks)
system.tol2bus.respLayer0.utilization             0.1                       # Layer utilization (%)
system.tol2bus.respLayer1.occupancy         179292258                       # Layer occupancy (ticks)
system.tol2bus.respLayer1.utilization             0.2                       # Layer utilization (%)
system.voltage_domain.voltage                       1                       # Voltage in Volts

---------- End Simulation Statistics   ----------
